@<TRIPOS>MOLECULE
(10
1720 2540 1 0 0
SMALL
USER_CHARGES


@<TRIPOS>ATOM
      1 C           6.8755    0.0000    0.0000 C.ar      1     ****   -1.0000
      2 C           6.7252    1.4295    0.0000 C.ar      1     ****   -1.0000
      3 C           5.5624    4.0413    0.0000 C.ar      1     ****   -1.0000
      4 C           4.6006    5.1095    0.0000 C.ar      1     ****   -1.0000
      5 C           2.1246    6.5390    0.0000 C.ar      1     ****   -1.0000
      6 C           0.7187    6.8378    0.0000 C.ar      1     ****   -1.0000
      7 C          -2.1246    6.5390    0.0000 C.ar      1     ****   -1.0000
      8 C          -3.4377    5.9544    0.0000 C.ar      1     ****   -1.0000
      9 C          -5.5624    4.0413    0.0000 C.ar      1     ****   -1.0000
     10 C          -6.2811    2.7965    0.0000 C.ar      1     ****   -1.0000
     11 C          -6.8755   -0.0000    0.0000 C.ar      1     ****   -1.0000
     12 C          -6.7252   -1.4295    0.0000 C.ar      1     ****   -1.0000
     13 C          -5.5624   -4.0413    0.0000 C.ar      1     ****   -1.0000
     14 C          -4.6006   -5.1095    0.0000 C.ar      1     ****   -1.0000
     15 C          -2.1246   -6.5390    0.0000 C.ar      1     ****   -1.0000
     16 C          -0.7187   -6.8378    0.0000 C.ar      1     ****   -1.0000
     17 C           2.1246   -6.5390    0.0000 C.ar      1     ****   -1.0000
     18 C           3.4377   -5.9544    0.0000 C.ar      1     ****   -1.0000
     19 C           5.5624   -4.0413    0.0000 C.ar      1     ****   -1.0000
     20 C           6.2811   -2.7965    0.0000 C.ar      1     ****   -1.0000
     21 C           6.5390    2.1246    1.2471 C.ar      1     ****    0.0000
     22 C           5.9544    3.4377    1.2471 C.ar      1     ****    0.0000
     23 C           4.0413    5.5624    1.2471 C.ar      1     ****    0.0000
     24 C           2.7965    6.2811    1.2471 C.ar      1     ****    0.0000
     25 C          -0.0000    6.8755    1.2471 C.ar      1     ****    0.0000
     26 C          -1.4295    6.7252    1.2471 C.ar      1     ****    0.0000
     27 C          -4.0413    5.5624    1.2471 C.ar      1     ****    0.0000
     28 C          -5.1095    4.6006    1.2471 C.ar      1     ****    0.0000
     29 C          -6.5390    2.1246    1.2471 C.ar      1     ****    0.0000
     30 C          -6.8378    0.7187    1.2471 C.ar      1     ****    0.0000
     31 C          -6.5390   -2.1246    1.2471 C.ar      1     ****    0.0000
     32 C          -5.9544   -3.4377    1.2471 C.ar      1     ****    0.0000
     33 C          -4.0413   -5.5624    1.2471 C.ar      1     ****    0.0000
     34 C          -2.7965   -6.2811    1.2471 C.ar      1     ****    0.0000
     35 C           0.0000   -6.8755    1.2471 C.ar      1     ****    0.0000
     36 C           1.4295   -6.7252    1.2471 C.ar      1     ****    0.0000
     37 C           4.0413   -5.5624    1.2471 C.ar      1     ****    0.0000
     38 C           5.1095   -4.6006    1.2471 C.ar      1     ****    0.0000
     39 C           6.5390   -2.1246    1.2471 C.ar      1     ****    0.0000
     40 C           6.8378   -0.7187    1.2471 C.ar      1     ****    0.0000
     41 C           5.5624    4.0413    2.4942 C.ar      1     ****    0.0000
     42 C           4.6006    5.1095    2.4942 C.ar      1     ****    0.0000
     43 C           2.1246    6.5390    2.4942 C.ar      1     ****    0.0000
     44 C           0.7187    6.8378    2.4942 C.ar      1     ****    0.0000
     45 C          -2.1246    6.5390    2.4942 C.ar      1     ****    0.0000
     46 C          -3.4377    5.9544    2.4942 C.ar      1     ****    0.0000
     47 C          -5.5624    4.0413    2.4942 C.ar      1     ****    0.0000
     48 C          -6.2811    2.7965    2.4942 C.ar      1     ****    0.0000
     49 C          -6.8755   -0.0000    2.4942 C.ar      1     ****    0.0000
     50 C          -6.7252   -1.4295    2.4942 C.ar      1     ****    0.0000
     51 C          -5.5624   -4.0413    2.4942 C.ar      1     ****    0.0000
     52 C          -4.6006   -5.1095    2.4942 C.ar      1     ****    0.0000
     53 C          -2.1246   -6.5390    2.4942 C.ar      1     ****    0.0000
     54 C          -0.7187   -6.8378    2.4942 C.ar      1     ****    0.0000
     55 C           2.1246   -6.5390    2.4942 C.ar      1     ****    0.0000
     56 C           3.4377   -5.9544    2.4942 C.ar      1     ****    0.0000
     57 C           5.5624   -4.0413    2.4942 C.ar      1     ****    0.0000
     58 C           6.2811   -2.7965    2.4942 C.ar      1     ****    0.0000
     59 C           6.8755    0.0000    2.4942 C.ar      1     ****    0.0000
     60 C           6.7252    1.4295    2.4942 C.ar      1     ****    0.0000
     61 C           4.0413    5.5624    3.7412 C.ar      1     ****    0.0000
     62 C           2.7965    6.2811    3.7412 C.ar      1     ****    0.0000
     63 C          -0.0000    6.8755    3.7412 C.ar      1     ****    0.0000
     64 C          -1.4295    6.7252    3.7412 C.ar      1     ****    0.0000
     65 C          -4.0413    5.5624    3.7412 C.ar      1     ****    0.0000
     66 C          -5.1095    4.6006    3.7412 C.ar      1     ****    0.0000
     67 C          -6.5390    2.1246    3.7412 C.ar      1     ****    0.0000
     68 C          -6.8378    0.7187    3.7412 C.ar      1     ****    0.0000
     69 C          -6.5390   -2.1246    3.7412 C.ar      1     ****    0.0000
     70 C          -5.9544   -3.4377    3.7412 C.ar      1     ****    0.0000
     71 C          -4.0413   -5.5624    3.7412 C.ar      1     ****    0.0000
     72 C          -2.7965   -6.2811    3.7412 C.ar      1     ****    0.0000
     73 C           0.0000   -6.8755    3.7412 C.ar      1     ****    0.0000
     74 C           1.4295   -6.7252    3.7412 C.ar      1     ****    0.0000
     75 C           4.0413   -5.5624    3.7412 C.ar      1     ****    0.0000
     76 C           5.1095   -4.6006    3.7412 C.ar      1     ****    0.0000
     77 C           6.5390   -2.1246    3.7412 C.ar      1     ****    0.0000
     78 C           6.8378   -0.7187    3.7412 C.ar      1     ****    0.0000
     79 C           6.5390    2.1246    3.7412 C.ar      1     ****    0.0000
     80 C           5.9544    3.4377    3.7412 C.ar      1     ****    0.0000
     81 C           2.1246    6.5390    4.9883 C.ar      1     ****    0.0000
     82 C           0.7187    6.8378    4.9883 C.ar      1     ****    0.0000
     83 C          -2.1246    6.5390    4.9883 C.ar      1     ****    0.0000
     84 C          -3.4377    5.9544    4.9883 C.ar      1     ****    0.0000
     85 C          -5.5624    4.0413    4.9883 C.ar      1     ****    0.0000
     86 C          -6.2811    2.7965    4.9883 C.ar      1     ****    0.0000
     87 C          -6.8755   -0.0000    4.9883 C.ar      1     ****    0.0000
     88 C          -6.7252   -1.4295    4.9883 C.ar      1     ****    0.0000
     89 C          -5.5624   -4.0413    4.9883 C.ar      1     ****    0.0000
     90 C          -4.6006   -5.1095    4.9883 C.ar      1     ****    0.0000
     91 C          -2.1246   -6.5390    4.9883 C.ar      1     ****    0.0000
     92 C          -0.7187   -6.8378    4.9883 C.ar      1     ****    0.0000
     93 C           2.1246   -6.5390    4.9883 C.ar      1     ****    0.0000
     94 C           3.4377   -5.9544    4.9883 C.ar      1     ****    0.0000
     95 C           5.5624   -4.0413    4.9883 C.ar      1     ****    0.0000
     96 C           6.2811   -2.7965    4.9883 C.ar      1     ****    0.0000
     97 C           6.8755    0.0000    4.9883 C.ar      1     ****    0.0000
     98 C           6.7252    1.4295    4.9883 C.ar      1     ****    0.0000
     99 C           5.5624    4.0413    4.9883 C.ar      1     ****    0.0000
    100 C           4.6006    5.1095    4.9883 C.ar      1     ****    0.0000
    101 C          -0.0000    6.8755    6.2354 C.ar      1     ****    0.0000
    102 C          -1.4295    6.7252    6.2354 C.ar      1     ****    0.0000
    103 C          -4.0413    5.5624    6.2354 C.ar      1     ****    0.0000
    104 C          -5.1095    4.6006    6.2354 C.ar      1     ****    0.0000
    105 C          -6.5390    2.1246    6.2354 C.ar      1     ****    0.0000
    106 C          -6.8378    0.7187    6.2354 C.ar      1     ****    0.0000
    107 C          -6.5390   -2.1246    6.2354 C.ar      1     ****    0.0000
    108 C          -5.9544   -3.4377    6.2354 C.ar      1     ****    0.0000
    109 C          -4.0413   -5.5624    6.2354 C.ar      1     ****    0.0000
    110 C          -2.7965   -6.2811    6.2354 C.ar      1     ****    0.0000
    111 C           0.0000   -6.8755    6.2354 C.ar      1     ****    0.0000
    112 C           1.4295   -6.7252    6.2354 C.ar      1     ****    0.0000
    113 C           4.0413   -5.5624    6.2354 C.ar      1     ****    0.0000
    114 C           5.1095   -4.6006    6.2354 C.ar      1     ****    0.0000
    115 C           6.5390   -2.1246    6.2354 C.ar      1     ****    0.0000
    116 C           6.8378   -0.7187    6.2354 C.ar      1     ****    0.0000
    117 C           6.5390    2.1246    6.2354 C.ar      1     ****    0.0000
    118 C           5.9544    3.4377    6.2354 C.ar      1     ****    0.0000
    119 C           4.0413    5.5624    6.2354 C.ar      1     ****    0.0000
    120 C           2.7965    6.2811    6.2354 C.ar      1     ****    0.0000
    121 C          -2.1246    6.5390    7.4825 C.ar      1     ****    0.0000
    122 C          -3.4377    5.9544    7.4825 C.ar      1     ****    0.0000
    123 C          -5.5624    4.0413    7.4825 C.ar      1     ****    0.0000
    124 C          -6.2811    2.7965    7.4825 C.ar      1     ****    0.0000
    125 C          -6.8755   -0.0000    7.4825 C.ar      1     ****    0.0000
    126 C          -6.7252   -1.4295    7.4825 C.ar      1     ****    0.0000
    127 C          -5.5624   -4.0413    7.4825 C.ar      1     ****    0.0000
    128 C          -4.6006   -5.1095    7.4825 C.ar      1     ****    0.0000
    129 C          -2.1246   -6.5390    7.4825 C.ar      1     ****    0.0000
    130 C          -0.7187   -6.8378    7.4825 C.ar      1     ****    0.0000
    131 C           2.1246   -6.5390    7.4825 C.ar      1     ****    0.0000
    132 C           3.4377   -5.9544    7.4825 C.ar      1     ****    0.0000
    133 C           5.5624   -4.0413    7.4825 C.ar      1     ****    0.0000
    134 C           6.2811   -2.7965    7.4825 C.ar      1     ****    0.0000
    135 C           6.8755    0.0000    7.4825 C.ar      1     ****    0.0000
    136 C           6.7252    1.4295    7.4825 C.ar      1     ****    0.0000
    137 C           5.5624    4.0413    7.4825 C.ar      1     ****    0.0000
    138 C           4.6006    5.1095    7.4825 C.ar      1     ****    0.0000
    139 C           2.1246    6.5390    7.4825 C.ar      1     ****    0.0000
    140 C           0.7187    6.8378    7.4825 C.ar      1     ****    0.0000
    141 C          -4.0413    5.5624    8.7295 C.ar      1     ****    0.0000
    142 C          -5.1095    4.6006    8.7295 C.ar      1     ****    0.0000
    143 C          -6.5390    2.1246    8.7295 C.ar      1     ****    0.0000
    144 C          -6.8378    0.7187    8.7295 C.ar      1     ****    0.0000
    145 C          -6.5390   -2.1246    8.7295 C.ar      1     ****    0.0000
    146 C          -5.9544   -3.4377    8.7295 C.ar      1     ****    0.0000
    147 C          -4.0413   -5.5624    8.7295 C.ar      1     ****    0.0000
    148 C          -2.7965   -6.2811    8.7295 C.ar      1     ****    0.0000
    149 C           0.0000   -6.8755    8.7295 C.ar      1     ****    0.0000
    150 C           1.4295   -6.7252    8.7295 C.ar      1     ****    0.0000
    151 C           4.0413   -5.5624    8.7295 C.ar      1     ****    0.0000
    152 C           5.1095   -4.6006    8.7295 C.ar      1     ****    0.0000
    153 C           6.5390   -2.1246    8.7295 C.ar      1     ****    0.0000
    154 C           6.8378   -0.7187    8.7295 C.ar      1     ****    0.0000
    155 C           6.5390    2.1246    8.7295 C.ar      1     ****    0.0000
    156 C           5.9544    3.4377    8.7295 C.ar      1     ****    0.0000
    157 C           4.0413    5.5624    8.7295 C.ar      1     ****    0.0000
    158 C           2.7965    6.2811    8.7295 C.ar      1     ****    0.0000
    159 C          -0.0000    6.8755    8.7295 C.ar      1     ****    0.0000
    160 C          -1.4295    6.7252    8.7295 C.ar      1     ****    0.0000
    161 C          -5.5624    4.0413    9.9766 C.ar      1     ****    0.0000
    162 C          -6.2811    2.7965    9.9766 C.ar      1     ****    0.0000
    163 C          -6.8755   -0.0000    9.9766 C.ar      1     ****    0.0000
    164 C          -6.7252   -1.4295    9.9766 C.ar      1     ****    0.0000
    165 C          -5.5624   -4.0413    9.9766 C.ar      1     ****    0.0000
    166 C          -4.6006   -5.1095    9.9766 C.ar      1     ****    0.0000
    167 C          -2.1246   -6.5390    9.9766 C.ar      1     ****    0.0000
    168 C          -0.7187   -6.8378    9.9766 C.ar      1     ****    0.0000
    169 C           2.1246   -6.5390    9.9766 C.ar      1     ****    0.0000
    170 C           3.4377   -5.9544    9.9766 C.ar      1     ****    0.0000
    171 C           5.5624   -4.0413    9.9766 C.ar      1     ****    0.0000
    172 C           6.2811   -2.7965    9.9766 C.ar      1     ****    0.0000
    173 C           6.8755    0.0000    9.9766 C.ar      1     ****    0.0000
    174 C           6.7252    1.4295    9.9766 C.ar      1     ****    0.0000
    175 C           5.5624    4.0413    9.9766 C.ar      1     ****    0.0000
    176 C           4.6006    5.1095    9.9766 C.ar      1     ****    0.0000
    177 C           2.1246    6.5390    9.9766 C.ar      1     ****    0.0000
    178 C           0.7187    6.8378    9.9766 C.ar      1     ****    0.0000
    179 C          -2.1246    6.5390    9.9766 C.ar      1     ****    0.0000
    180 C          -3.4377    5.9544    9.9766 C.ar      1     ****    0.0000
    181 C          -6.5390    2.1246   11.2237 C.ar      1     ****    0.0000
    182 C          -6.8378    0.7187   11.2237 C.ar      1     ****    0.0000
    183 C          -6.5390   -2.1246   11.2237 C.ar      1     ****    0.0000
    184 C          -5.9544   -3.4377   11.2237 C.ar      1     ****    0.0000
    185 C          -4.0413   -5.5624   11.2237 C.ar      1     ****    0.0000
    186 C          -2.7965   -6.2811   11.2237 C.ar      1     ****    0.0000
    187 C           0.0000   -6.8755   11.2237 C.ar      1     ****    0.0000
    188 C           1.4295   -6.7252   11.2237 C.ar      1     ****    0.0000
    189 C           4.0413   -5.5624   11.2237 C.ar      1     ****    0.0000
    190 C           5.1095   -4.6006   11.2237 C.ar      1     ****    0.0000
    191 C           6.5390   -2.1246   11.2237 C.ar      1     ****    0.0000
    192 C           6.8378   -0.7187   11.2237 C.ar      1     ****    0.0000
    193 C           6.5390    2.1246   11.2237 C.ar      1     ****    0.0000
    194 C           5.9544    3.4377   11.2237 C.ar      1     ****    0.0000
    195 C           4.0413    5.5624   11.2237 C.ar      1     ****    0.0000
    196 C           2.7965    6.2811   11.2237 C.ar      1     ****    0.0000
    197 C          -0.0000    6.8755   11.2237 C.ar      1     ****    0.0000
    198 C          -1.4295    6.7252   11.2237 C.ar      1     ****    0.0000
    199 C          -4.0413    5.5624   11.2237 C.ar      1     ****    0.0000
    200 C          -5.1095    4.6006   11.2237 C.ar      1     ****    0.0000
    201 C          -6.8755   -0.0000   12.4708 C.ar      1     ****    0.0000
    202 C          -6.7252   -1.4295   12.4708 C.ar      1     ****    0.0000
    203 C          -5.5624   -4.0413   12.4708 C.ar      1     ****    0.0000
    204 C          -4.6006   -5.1095   12.4708 C.ar      1     ****    0.0000
    205 C          -2.1246   -6.5390   12.4708 C.ar      1     ****    0.0000
    206 C          -0.7187   -6.8378   12.4708 C.ar      1     ****    0.0000
    207 C           2.1246   -6.5390   12.4708 C.ar      1     ****    0.0000
    208 C           3.4377   -5.9544   12.4708 C.ar      1     ****    0.0000
    209 C           5.5624   -4.0413   12.4708 C.ar      1     ****    0.0000
    210 C           6.2811   -2.7965   12.4708 C.ar      1     ****    0.0000
    211 C           6.8755    0.0000   12.4708 C.ar      1     ****    0.0000
    212 C           6.7252    1.4295   12.4708 C.ar      1     ****    0.0000
    213 C           5.5624    4.0413   12.4708 C.ar      1     ****    0.0000
    214 C           4.6006    5.1095   12.4708 C.ar      1     ****    0.0000
    215 C           2.1246    6.5390   12.4708 C.ar      1     ****    0.0000
    216 C           0.7187    6.8378   12.4708 C.ar      1     ****    0.0000
    217 C          -2.1246    6.5390   12.4708 C.ar      1     ****    0.0000
    218 C          -3.4377    5.9544   12.4708 C.ar      1     ****    0.0000
    219 C          -5.5624    4.0413   12.4708 C.ar      1     ****    0.0000
    220 C          -6.2811    2.7965   12.4708 C.ar      1     ****    0.0000
    221 C          -6.5390   -2.1246   13.7178 C.ar      1     ****    0.0000
    222 C          -5.9544   -3.4377   13.7178 C.ar      1     ****    0.0000
    223 C          -4.0413   -5.5624   13.7178 C.ar      1     ****    0.0000
    224 C          -2.7965   -6.2811   13.7178 C.ar      1     ****    0.0000
    225 C           0.0000   -6.8755   13.7178 C.ar      1     ****    0.0000
    226 C           1.4295   -6.7252   13.7178 C.ar      1     ****    0.0000
    227 C           4.0413   -5.5624   13.7178 C.ar      1     ****    0.0000
    228 C           5.1095   -4.6006   13.7178 C.ar      1     ****    0.0000
    229 C           6.5390   -2.1246   13.7178 C.ar      1     ****    0.0000
    230 C           6.8378   -0.7187   13.7178 C.ar      1     ****    0.0000
    231 C           6.5390    2.1246   13.7178 C.ar      1     ****    0.0000
    232 C           5.9544    3.4377   13.7178 C.ar      1     ****    0.0000
    233 C           4.0413    5.5624   13.7178 C.ar      1     ****    0.0000
    234 C           2.7965    6.2811   13.7178 C.ar      1     ****    0.0000
    235 C          -0.0000    6.8755   13.7178 C.ar      1     ****    0.0000
    236 C          -1.4295    6.7252   13.7178 C.ar      1     ****    0.0000
    237 C          -4.0413    5.5624   13.7178 C.ar      1     ****    0.0000
    238 C          -5.1095    4.6006   13.7178 C.ar      1     ****    0.0000
    239 C          -6.5390    2.1246   13.7178 C.ar      1     ****    0.0000
    240 C          -6.8378    0.7187   13.7178 C.ar      1     ****    0.0000
    241 C          -5.5624   -4.0413   14.9649 C.ar      1     ****    0.0000
    242 C          -4.6006   -5.1095   14.9649 C.ar      1     ****    0.0000
    243 C          -2.1246   -6.5390   14.9649 C.ar      1     ****    0.0000
    244 C          -0.7187   -6.8378   14.9649 C.ar      1     ****    0.0000
    245 C           2.1246   -6.5390   14.9649 C.ar      1     ****    0.0000
    246 C           3.4377   -5.9544   14.9649 C.ar      1     ****    0.0000
    247 C           5.5624   -4.0413   14.9649 C.ar      1     ****    0.0000
    248 C           6.2811   -2.7965   14.9649 C.ar      1     ****    0.0000
    249 C           6.8755    0.0000   14.9649 C.ar      1     ****    0.0000
    250 C           6.7252    1.4295   14.9649 C.ar      1     ****    0.0000
    251 C           5.5624    4.0413   14.9649 C.ar      1     ****    0.0000
    252 C           4.6006    5.1095   14.9649 C.ar      1     ****    0.0000
    253 C           2.1246    6.5390   14.9649 C.ar      1     ****    0.0000
    254 C           0.7187    6.8378   14.9649 C.ar      1     ****    0.0000
    255 C          -2.1246    6.5390   14.9649 C.ar      1     ****    0.0000
    256 C          -3.4377    5.9544   14.9649 C.ar      1     ****    0.0000
    257 C          -5.5624    4.0413   14.9649 C.ar      1     ****    0.0000
    258 C          -6.2811    2.7965   14.9649 C.ar      1     ****    0.0000
    259 C          -6.8755   -0.0000   14.9649 C.ar      1     ****    0.0000
    260 C          -6.7252   -1.4295   14.9649 C.ar      1     ****    0.0000
    261 C          -4.0413   -5.5624   16.2120 C.ar      1     ****    0.0000
    262 C          -2.7965   -6.2811   16.2120 C.ar      1     ****    0.0000
    263 C           0.0000   -6.8755   16.2120 C.ar      1     ****    0.0000
    264 C           1.4295   -6.7252   16.2120 C.ar      1     ****    0.0000
    265 C           4.0413   -5.5624   16.2120 C.ar      1     ****    0.0000
    266 C           5.1095   -4.6006   16.2120 C.ar      1     ****    0.0000
    267 C           6.5390   -2.1246   16.2120 C.ar      1     ****    0.0000
    268 C           6.8378   -0.7187   16.2120 C.ar      1     ****    0.0000
    269 C           6.5390    2.1246   16.2120 C.ar      1     ****    0.0000
    270 C           5.9544    3.4377   16.2120 C.ar      1     ****    0.0000
    271 C           4.0413    5.5624   16.2120 C.ar      1     ****    0.0000
    272 C           2.7965    6.2811   16.2120 C.ar      1     ****    0.0000
    273 C          -0.0000    6.8755   16.2120 C.ar      1     ****    0.0000
    274 C          -1.4295    6.7252   16.2120 C.ar      1     ****    0.0000
    275 C          -4.0413    5.5624   16.2120 C.ar      1     ****    0.0000
    276 C          -5.1095    4.6006   16.2120 C.ar      1     ****    0.0000
    277 C          -6.5390    2.1246   16.2120 C.ar      1     ****    0.0000
    278 C          -6.8378    0.7187   16.2120 C.ar      1     ****    0.0000
    279 C          -6.5390   -2.1246   16.2120 C.ar      1     ****    0.0000
    280 C          -5.9544   -3.4377   16.2120 C.ar      1     ****    0.0000
    281 C          -2.1246   -6.5390   17.4591 C.ar      1     ****    0.0000
    282 C          -0.7187   -6.8378   17.4591 C.ar      1     ****    0.0000
    283 C           2.1246   -6.5390   17.4591 C.ar      1     ****    0.0000
    284 C           3.4377   -5.9544   17.4591 C.ar      1     ****    0.0000
    285 C           5.5624   -4.0413   17.4591 C.ar      1     ****    0.0000
    286 C           6.2811   -2.7965   17.4591 C.ar      1     ****    0.0000
    287 C           6.8755    0.0000   17.4591 C.ar      1     ****    0.0000
    288 C           6.7252    1.4295   17.4591 C.ar      1     ****    0.0000
    289 C           5.5624    4.0413   17.4591 C.ar      1     ****    0.0000
    290 C           4.6006    5.1095   17.4591 C.ar      1     ****    0.0000
    291 C           2.1246    6.5390   17.4591 C.ar      1     ****    0.0000
    292 C           0.7187    6.8378   17.4591 C.ar      1     ****    0.0000
    293 C          -2.1246    6.5390   17.4591 C.ar      1     ****    0.0000
    294 C          -3.4377    5.9544   17.4591 C.ar      1     ****    0.0000
    295 C          -5.5624    4.0413   17.4591 C.ar      1     ****    0.0000
    296 C          -6.2811    2.7965   17.4591 C.ar      1     ****    0.0000
    297 C          -6.8755   -0.0000   17.4591 C.ar      1     ****    0.0000
    298 C          -6.7252   -1.4295   17.4591 C.ar      1     ****    0.0000
    299 C          -5.5624   -4.0413   17.4591 C.ar      1     ****    0.0000
    300 C          -4.6006   -5.1095   17.4591 C.ar      1     ****    0.0000
    301 C           0.0000   -6.8755   18.7061 C.ar      1     ****    0.0000
    302 C           1.4295   -6.7252   18.7061 C.ar      1     ****    0.0000
    303 C           4.0413   -5.5624   18.7061 C.ar      1     ****    0.0000
    304 C           5.1095   -4.6006   18.7061 C.ar      1     ****    0.0000
    305 C           6.5390   -2.1246   18.7061 C.ar      1     ****    0.0000
    306 C           6.8378   -0.7187   18.7061 C.ar      1     ****    0.0000
    307 C           6.5390    2.1246   18.7061 C.ar      1     ****    0.0000
    308 C           5.9544    3.4377   18.7061 C.ar      1     ****    0.0000
    309 C           4.0413    5.5624   18.7061 C.ar      1     ****    0.0000
    310 C           2.7965    6.2811   18.7061 C.ar      1     ****    0.0000
    311 C          -0.0000    6.8755   18.7061 C.ar      1     ****    0.0000
    312 C          -1.4295    6.7252   18.7061 C.ar      1     ****    0.0000
    313 C          -4.0413    5.5624   18.7061 C.ar      1     ****    0.0000
    314 C          -5.1095    4.6006   18.7061 C.ar      1     ****    0.0000
    315 C          -6.5390    2.1246   18.7061 C.ar      1     ****    0.0000
    316 C          -6.8378    0.7187   18.7061 C.ar      1     ****    0.0000
    317 C          -6.5390   -2.1246   18.7061 C.ar      1     ****    0.0000
    318 C          -5.9544   -3.4377   18.7061 C.ar      1     ****    0.0000
    319 C          -4.0413   -5.5624   18.7061 C.ar      1     ****    0.0000
    320 C          -2.7965   -6.2811   18.7061 C.ar      1     ****    0.0000
    321 C           2.1246   -6.5390   19.9532 C.ar      1     ****    0.0000
    322 C           3.4377   -5.9544   19.9532 C.ar      1     ****    0.0000
    323 C           5.5624   -4.0413   19.9532 C.ar      1     ****    0.0000
    324 C           6.2811   -2.7965   19.9532 C.ar      1     ****    0.0000
    325 C           6.8755    0.0000   19.9532 C.ar      1     ****    0.0000
    326 C           6.7252    1.4295   19.9532 C.ar      1     ****    0.0000
    327 C           5.5624    4.0413   19.9532 C.ar      1     ****    0.0000
    328 C           4.6006    5.1095   19.9532 C.ar      1     ****    0.0000
    329 C           2.1246    6.5390   19.9532 C.ar      1     ****    0.0000
    330 C           0.7187    6.8378   19.9532 C.ar      1     ****    0.0000
    331 C          -2.1246    6.5390   19.9532 C.ar      1     ****    0.0000
    332 C          -3.4377    5.9544   19.9532 C.ar      1     ****    0.0000
    333 C          -5.5624    4.0413   19.9532 C.ar      1     ****    0.0000
    334 C          -6.2811    2.7965   19.9532 C.ar      1     ****    0.0000
    335 C          -6.8755   -0.0000   19.9532 C.ar      1     ****    0.0000
    336 C          -6.7252   -1.4295   19.9532 C.ar      1     ****    0.0000
    337 C          -5.5624   -4.0413   19.9532 C.ar      1     ****    0.0000
    338 C          -4.6006   -5.1095   19.9532 C.ar      1     ****    0.0000
    339 C          -2.1246   -6.5390   19.9532 C.ar      1     ****    0.0000
    340 C          -0.7187   -6.8378   19.9532 C.ar      1     ****    0.0000
    341 C           4.0413   -5.5624   21.2003 C.ar      1     ****    0.0000
    342 C           5.1095   -4.6006   21.2003 C.ar      1     ****    0.0000
    343 C           6.5390   -2.1246   21.2003 C.ar      1     ****    0.0000
    344 C           6.8378   -0.7187   21.2003 C.ar      1     ****    0.0000
    345 C           6.5390    2.1246   21.2003 C.ar      1     ****    0.0000
    346 C           5.9544    3.4377   21.2003 C.ar      1     ****    0.0000
    347 C           4.0413    5.5624   21.2003 C.ar      1     ****    0.0000
    348 C           2.7965    6.2811   21.2003 C.ar      1     ****    0.0000
    349 C          -0.0000    6.8755   21.2003 C.ar      1     ****    0.0000
    350 C          -1.4295    6.7252   21.2003 C.ar      1     ****    0.0000
    351 C          -4.0413    5.5624   21.2003 C.ar      1     ****    0.0000
    352 C          -5.1095    4.6006   21.2003 C.ar      1     ****    0.0000
    353 C          -6.5390    2.1246   21.2003 C.ar      1     ****    0.0000
    354 C          -6.8378    0.7187   21.2003 C.ar      1     ****    0.0000
    355 C          -6.5390   -2.1246   21.2003 C.ar      1     ****    0.0000
    356 C          -5.9544   -3.4377   21.2003 C.ar      1     ****    0.0000
    357 C          -4.0413   -5.5624   21.2003 C.ar      1     ****    0.0000
    358 C          -2.7965   -6.2811   21.2003 C.ar      1     ****    0.0000
    359 C           0.0000   -6.8755   21.2003 C.ar      1     ****    0.0000
    360 C           1.4295   -6.7252   21.2003 C.ar      1     ****    0.0000
    361 C           5.5624   -4.0413   22.4474 C.ar      1     ****    0.0000
    362 C           6.2811   -2.7965   22.4474 C.ar      1     ****    0.0000
    363 C           6.8755    0.0000   22.4474 C.ar      1     ****    0.0000
    364 C           6.7252    1.4295   22.4474 C.ar      1     ****    0.0000
    365 C           5.5624    4.0413   22.4474 C.ar      1     ****    0.0000
    366 C           4.6006    5.1095   22.4474 C.ar      1     ****    0.0000
    367 C           2.1246    6.5390   22.4474 C.ar      1     ****    0.0000
    368 C           0.7187    6.8378   22.4474 C.ar      1     ****    0.0000
    369 C          -2.1246    6.5390   22.4474 C.ar      1     ****    0.0000
    370 C          -3.4377    5.9544   22.4474 C.ar      1     ****    0.0000
    371 C          -5.5624    4.0413   22.4474 C.ar      1     ****    0.0000
    372 C          -6.2811    2.7965   22.4474 C.ar      1     ****    0.0000
    373 C          -6.8755   -0.0000   22.4474 C.ar      1     ****    0.0000
    374 C          -6.7252   -1.4295   22.4474 C.ar      1     ****    0.0000
    375 C          -5.5624   -4.0413   22.4474 C.ar      1     ****    0.0000
    376 C          -4.6006   -5.1095   22.4474 C.ar      1     ****    0.0000
    377 C          -2.1246   -6.5390   22.4474 C.ar      1     ****    0.0000
    378 C          -0.7187   -6.8378   22.4474 C.ar      1     ****    0.0000
    379 C           2.1246   -6.5390   22.4474 C.ar      1     ****    0.0000
    380 C           3.4377   -5.9544   22.4474 C.ar      1     ****    0.0000
    381 C           6.5390   -2.1246   23.6945 C.ar      1     ****    0.0000
    382 C           6.8378   -0.7187   23.6945 C.ar      1     ****    0.0000
    383 C           6.5390    2.1246   23.6945 C.ar      1     ****    0.0000
    384 C           5.9544    3.4377   23.6945 C.ar      1     ****    0.0000
    385 C           4.0413    5.5624   23.6945 C.ar      1     ****    0.0000
    386 C           2.7965    6.2811   23.6945 C.ar      1     ****    0.0000
    387 C          -0.0000    6.8755   23.6945 C.ar      1     ****    0.0000
    388 C          -1.4295    6.7252   23.6945 C.ar      1     ****    0.0000
    389 C          -4.0413    5.5624   23.6945 C.ar      1     ****    0.0000
    390 C          -5.1095    4.6006   23.6945 C.ar      1     ****    0.0000
    391 C          -6.5390    2.1246   23.6945 C.ar      1     ****    0.0000
    392 C          -6.8378    0.7187   23.6945 C.ar      1     ****    0.0000
    393 C          -6.5390   -2.1246   23.6945 C.ar      1     ****    0.0000
    394 C          -5.9544   -3.4377   23.6945 C.ar      1     ****    0.0000
    395 C          -4.0413   -5.5624   23.6945 C.ar      1     ****    0.0000
    396 C          -2.7965   -6.2811   23.6945 C.ar      1     ****    0.0000
    397 C           0.0000   -6.8755   23.6945 C.ar      1     ****    0.0000
    398 C           1.4295   -6.7252   23.6945 C.ar      1     ****    0.0000
    399 C           4.0413   -5.5624   23.6945 C.ar      1     ****    0.0000
    400 C           5.1095   -4.6006   23.6945 C.ar      1     ****    0.0000
    401 C           6.8755    0.0000   24.9415 C.ar      1     ****    0.0000
    402 C           6.7252    1.4295   24.9415 C.ar      1     ****    0.0000
    403 C           5.5624    4.0413   24.9415 C.ar      1     ****    0.0000
    404 C           4.6006    5.1095   24.9415 C.ar      1     ****    0.0000
    405 C           2.1246    6.5390   24.9415 C.ar      1     ****    0.0000
    406 C           0.7187    6.8378   24.9415 C.ar      1     ****    0.0000
    407 C          -2.1246    6.5390   24.9415 C.ar      1     ****    0.0000
    408 C          -3.4377    5.9544   24.9415 C.ar      1     ****    0.0000
    409 C          -5.5624    4.0413   24.9415 C.ar      1     ****    0.0000
    410 C          -6.2811    2.7965   24.9415 C.ar      1     ****    0.0000
    411 C          -6.8755   -0.0000   24.9415 C.ar      1     ****    0.0000
    412 C          -6.7252   -1.4295   24.9415 C.ar      1     ****    0.0000
    413 C          -5.5624   -4.0413   24.9415 C.ar      1     ****    0.0000
    414 C          -4.6006   -5.1095   24.9415 C.ar      1     ****    0.0000
    415 C          -2.1246   -6.5390   24.9415 C.ar      1     ****    0.0000
    416 C          -0.7187   -6.8378   24.9415 C.ar      1     ****    0.0000
    417 C           2.1246   -6.5390   24.9415 C.ar      1     ****    0.0000
    418 C           3.4377   -5.9544   24.9415 C.ar      1     ****    0.0000
    419 C           5.5624   -4.0413   24.9415 C.ar      1     ****    0.0000
    420 C           6.2811   -2.7965   24.9415 C.ar      1     ****    0.0000
    421 C           6.5390    2.1246   26.1886 C.ar      1     ****    0.0000
    422 C           5.9544    3.4377   26.1886 C.ar      1     ****    0.0000
    423 C           4.0413    5.5624   26.1886 C.ar      1     ****    0.0000
    424 C           2.7965    6.2811   26.1886 C.ar      1     ****    0.0000
    425 C          -0.0000    6.8755   26.1886 C.ar      1     ****    0.0000
    426 C          -1.4295    6.7252   26.1886 C.ar      1     ****    0.0000
    427 C          -4.0413    5.5624   26.1886 C.ar      1     ****    0.0000
    428 C          -5.1095    4.6006   26.1886 C.ar      1     ****    0.0000
    429 C          -6.5390    2.1246   26.1886 C.ar      1     ****    0.0000
    430 C          -6.8378    0.7187   26.1886 C.ar      1     ****    0.0000
    431 C          -6.5390   -2.1246   26.1886 C.ar      1     ****    0.0000
    432 C          -5.9544   -3.4377   26.1886 C.ar      1     ****    0.0000
    433 C          -4.0413   -5.5624   26.1886 C.ar      1     ****    0.0000
    434 C          -2.7965   -6.2811   26.1886 C.ar      1     ****    0.0000
    435 C           0.0000   -6.8755   26.1886 C.ar      1     ****    0.0000
    436 C           1.4295   -6.7252   26.1886 C.ar      1     ****    0.0000
    437 C           4.0413   -5.5624   26.1886 C.ar      1     ****    0.0000
    438 C           5.1095   -4.6006   26.1886 C.ar      1     ****    0.0000
    439 C           6.5390   -2.1246   26.1886 C.ar      1     ****    0.0000
    440 C           6.8378   -0.7187   26.1886 C.ar      1     ****    0.0000
    441 C           5.5624    4.0413   27.4357 C.ar      1     ****    0.0000
    442 C           4.6006    5.1095   27.4357 C.ar      1     ****    0.0000
    443 C           2.1246    6.5390   27.4357 C.ar      1     ****    0.0000
    444 C           0.7187    6.8378   27.4357 C.ar      1     ****    0.0000
    445 C          -2.1246    6.5390   27.4357 C.ar      1     ****    0.0000
    446 C          -3.4377    5.9544   27.4357 C.ar      1     ****    0.0000
    447 C          -5.5624    4.0413   27.4357 C.ar      1     ****    0.0000
    448 C          -6.2811    2.7965   27.4357 C.ar      1     ****    0.0000
    449 C          -6.8755   -0.0000   27.4357 C.ar      1     ****    0.0000
    450 C          -6.7252   -1.4295   27.4357 C.ar      1     ****    0.0000
    451 C          -5.5624   -4.0413   27.4357 C.ar      1     ****    0.0000
    452 C          -4.6006   -5.1095   27.4357 C.ar      1     ****    0.0000
    453 C          -2.1246   -6.5390   27.4357 C.ar      1     ****    0.0000
    454 C          -0.7187   -6.8378   27.4357 C.ar      1     ****    0.0000
    455 C           2.1246   -6.5390   27.4357 C.ar      1     ****    0.0000
    456 C           3.4377   -5.9544   27.4357 C.ar      1     ****    0.0000
    457 C           5.5624   -4.0413   27.4357 C.ar      1     ****    0.0000
    458 C           6.2811   -2.7965   27.4357 C.ar      1     ****    0.0000
    459 C           6.8755    0.0000   27.4357 C.ar      1     ****    0.0000
    460 C           6.7252    1.4295   27.4357 C.ar      1     ****    0.0000
    461 C           4.0413    5.5624   28.6828 C.ar      1     ****    0.0000
    462 C           2.7965    6.2811   28.6828 C.ar      1     ****    0.0000
    463 C          -0.0000    6.8755   28.6828 C.ar      1     ****    0.0000
    464 C          -1.4295    6.7252   28.6828 C.ar      1     ****    0.0000
    465 C          -4.0413    5.5624   28.6828 C.ar      1     ****    0.0000
    466 C          -5.1095    4.6006   28.6828 C.ar      1     ****    0.0000
    467 C          -6.5390    2.1246   28.6828 C.ar      1     ****    0.0000
    468 C          -6.8378    0.7187   28.6828 C.ar      1     ****    0.0000
    469 C          -6.5390   -2.1246   28.6828 C.ar      1     ****    0.0000
    470 C          -5.9544   -3.4377   28.6828 C.ar      1     ****    0.0000
    471 C          -4.0413   -5.5624   28.6828 C.ar      1     ****    0.0000
    472 C          -2.7965   -6.2811   28.6828 C.ar      1     ****    0.0000
    473 C           0.0000   -6.8755   28.6828 C.ar      1     ****    0.0000
    474 C           1.4295   -6.7252   28.6828 C.ar      1     ****    0.0000
    475 C           4.0413   -5.5624   28.6828 C.ar      1     ****    0.0000
    476 C           5.1095   -4.6006   28.6828 C.ar      1     ****    0.0000
    477 C           6.5390   -2.1246   28.6828 C.ar      1     ****    0.0000
    478 C           6.8378   -0.7187   28.6828 C.ar      1     ****    0.0000
    479 C           6.5390    2.1246   28.6828 C.ar      1     ****    0.0000
    480 C           5.9544    3.4377   28.6828 C.ar      1     ****    0.0000
    481 C           2.1246    6.5390   29.9298 C.ar      1     ****    0.0000
    482 C           0.7187    6.8378   29.9298 C.ar      1     ****    0.0000
    483 C          -2.1246    6.5390   29.9298 C.ar      1     ****    0.0000
    484 C          -3.4377    5.9544   29.9298 C.ar      1     ****    0.0000
    485 C          -5.5624    4.0413   29.9298 C.ar      1     ****    0.0000
    486 C          -6.2811    2.7965   29.9298 C.ar      1     ****    0.0000
    487 C          -6.8755   -0.0000   29.9298 C.ar      1     ****    0.0000
    488 C          -6.7252   -1.4295   29.9298 C.ar      1     ****    0.0000
    489 C          -5.5624   -4.0413   29.9298 C.ar      1     ****    0.0000
    490 C          -4.6006   -5.1095   29.9298 C.ar      1     ****    0.0000
    491 C          -2.1246   -6.5390   29.9298 C.ar      1     ****    0.0000
    492 C          -0.7187   -6.8378   29.9298 C.ar      1     ****    0.0000
    493 C           2.1246   -6.5390   29.9298 C.ar      1     ****    0.0000
    494 C           3.4377   -5.9544   29.9298 C.ar      1     ****    0.0000
    495 C           5.5624   -4.0413   29.9298 C.ar      1     ****    0.0000
    496 C           6.2811   -2.7965   29.9298 C.ar      1     ****    0.0000
    497 C           6.8755    0.0000   29.9298 C.ar      1     ****    0.0000
    498 C           6.7252    1.4295   29.9298 C.ar      1     ****    0.0000
    499 C           5.5624    4.0413   29.9298 C.ar      1     ****    0.0000
    500 C           4.6006    5.1095   29.9298 C.ar      1     ****    0.0000
    501 C          -0.0000    6.8755   31.1769 C.ar      1     ****    0.0000
    502 C          -1.4295    6.7252   31.1769 C.ar      1     ****    0.0000
    503 C          -4.0413    5.5624   31.1769 C.ar      1     ****    0.0000
    504 C          -5.1095    4.6006   31.1769 C.ar      1     ****    0.0000
    505 C          -6.5390    2.1246   31.1769 C.ar      1     ****    0.0000
    506 C          -6.8378    0.7187   31.1769 C.ar      1     ****    0.0000
    507 C          -6.5390   -2.1246   31.1769 C.ar      1     ****    0.0000
    508 C          -5.9544   -3.4377   31.1769 C.ar      1     ****    0.0000
    509 C          -4.0413   -5.5624   31.1769 C.ar      1     ****    0.0000
    510 C          -2.7965   -6.2811   31.1769 C.ar      1     ****    0.0000
    511 C           0.0000   -6.8755   31.1769 C.ar      1     ****    0.0000
    512 C           1.4295   -6.7252   31.1769 C.ar      1     ****    0.0000
    513 C           4.0413   -5.5624   31.1769 C.ar      1     ****    0.0000
    514 C           5.1095   -4.6006   31.1769 C.ar      1     ****    0.0000
    515 C           6.5390   -2.1246   31.1769 C.ar      1     ****    0.0000
    516 C           6.8378   -0.7187   31.1769 C.ar      1     ****    0.0000
    517 C           6.5390    2.1246   31.1769 C.ar      1     ****    0.0000
    518 C           5.9544    3.4377   31.1769 C.ar      1     ****    0.0000
    519 C           4.0413    5.5624   31.1769 C.ar      1     ****    0.0000
    520 C           2.7965    6.2811   31.1769 C.ar      1     ****    0.0000
    521 C          -2.1246    6.5390   32.4240 C.ar      1     ****    0.0000
    522 C          -3.4377    5.9544   32.4240 C.ar      1     ****    0.0000
    523 C          -5.5624    4.0413   32.4240 C.ar      1     ****    0.0000
    524 C          -6.2811    2.7965   32.4240 C.ar      1     ****    0.0000
    525 C          -6.8755   -0.0000   32.4240 C.ar      1     ****    0.0000
    526 C          -6.7252   -1.4295   32.4240 C.ar      1     ****    0.0000
    527 C          -5.5624   -4.0413   32.4240 C.ar      1     ****    0.0000
    528 C          -4.6006   -5.1095   32.4240 C.ar      1     ****    0.0000
    529 C          -2.1246   -6.5390   32.4240 C.ar      1     ****    0.0000
    530 C          -0.7187   -6.8378   32.4240 C.ar      1     ****    0.0000
    531 C           2.1246   -6.5390   32.4240 C.ar      1     ****    0.0000
    532 C           3.4377   -5.9544   32.4240 C.ar      1     ****    0.0000
    533 C           5.5624   -4.0413   32.4240 C.ar      1     ****    0.0000
    534 C           6.2811   -2.7965   32.4240 C.ar      1     ****    0.0000
    535 C           6.8755    0.0000   32.4240 C.ar      1     ****    0.0000
    536 C           6.7252    1.4295   32.4240 C.ar      1     ****    0.0000
    537 C           5.5624    4.0413   32.4240 C.ar      1     ****    0.0000
    538 C           4.6006    5.1095   32.4240 C.ar      1     ****    0.0000
    539 C           2.1246    6.5390   32.4240 C.ar      1     ****    0.0000
    540 C           0.7187    6.8378   32.4240 C.ar      1     ****    0.0000
    541 C          -4.0413    5.5624   33.6711 C.ar      1     ****    0.0000
    542 C          -5.1095    4.6006   33.6711 C.ar      1     ****    0.0000
    543 C          -6.5390    2.1246   33.6711 C.ar      1     ****    0.0000
    544 C          -6.8378    0.7187   33.6711 C.ar      1     ****    0.0000
    545 C          -6.5390   -2.1246   33.6711 C.ar      1     ****    0.0000
    546 C          -5.9544   -3.4377   33.6711 C.ar      1     ****    0.0000
    547 C          -4.0413   -5.5624   33.6711 C.ar      1     ****    0.0000
    548 C          -2.7965   -6.2811   33.6711 C.ar      1     ****    0.0000
    549 C           0.0000   -6.8755   33.6711 C.ar      1     ****    0.0000
    550 C           1.4295   -6.7252   33.6711 C.ar      1     ****    0.0000
    551 C           4.0413   -5.5624   33.6711 C.ar      1     ****    0.0000
    552 C           5.1095   -4.6006   33.6711 C.ar      1     ****    0.0000
    553 C           6.5390   -2.1246   33.6711 C.ar      1     ****    0.0000
    554 C           6.8378   -0.7187   33.6711 C.ar      1     ****    0.0000
    555 C           6.5390    2.1246   33.6711 C.ar      1     ****    0.0000
    556 C           5.9544    3.4377   33.6711 C.ar      1     ****    0.0000
    557 C           4.0413    5.5624   33.6711 C.ar      1     ****    0.0000
    558 C           2.7965    6.2811   33.6711 C.ar      1     ****    0.0000
    559 C          -0.0000    6.8755   33.6711 C.ar      1     ****    0.0000
    560 C          -1.4295    6.7252   33.6711 C.ar      1     ****    0.0000
    561 C          -5.5624    4.0413   34.9181 C.ar      1     ****    0.0000
    562 C          -6.2811    2.7965   34.9181 C.ar      1     ****    0.0000
    563 C          -6.8755   -0.0000   34.9181 C.ar      1     ****    0.0000
    564 C          -6.7252   -1.4295   34.9181 C.ar      1     ****    0.0000
    565 C          -5.5624   -4.0413   34.9181 C.ar      1     ****    0.0000
    566 C          -4.6006   -5.1095   34.9181 C.ar      1     ****    0.0000
    567 C          -2.1246   -6.5390   34.9181 C.ar      1     ****    0.0000
    568 C          -0.7187   -6.8378   34.9181 C.ar      1     ****    0.0000
    569 C           2.1246   -6.5390   34.9181 C.ar      1     ****    0.0000
    570 C           3.4377   -5.9544   34.9181 C.ar      1     ****    0.0000
    571 C           5.5624   -4.0413   34.9181 C.ar      1     ****    0.0000
    572 C           6.2811   -2.7965   34.9181 C.ar      1     ****    0.0000
    573 C           6.8755    0.0000   34.9181 C.ar      1     ****    0.0000
    574 C           6.7252    1.4295   34.9181 C.ar      1     ****    0.0000
    575 C           5.5624    4.0413   34.9181 C.ar      1     ****    0.0000
    576 C           4.6006    5.1095   34.9181 C.ar      1     ****    0.0000
    577 C           2.1246    6.5390   34.9181 C.ar      1     ****    0.0000
    578 C           0.7187    6.8378   34.9181 C.ar      1     ****    0.0000
    579 C          -2.1246    6.5390   34.9181 C.ar      1     ****    0.0000
    580 C          -3.4377    5.9544   34.9181 C.ar      1     ****    0.0000
    581 C          -6.5390    2.1246   36.1652 C.ar      1     ****    0.0000
    582 C          -6.8378    0.7187   36.1652 C.ar      1     ****    0.0000
    583 C          -6.5390   -2.1246   36.1652 C.ar      1     ****    0.0000
    584 C          -5.9544   -3.4377   36.1652 C.ar      1     ****    0.0000
    585 C          -4.0413   -5.5624   36.1652 C.ar      1     ****    0.0000
    586 C          -2.7965   -6.2811   36.1652 C.ar      1     ****    0.0000
    587 C           0.0000   -6.8755   36.1652 C.ar      1     ****    0.0000
    588 C           1.4295   -6.7252   36.1652 C.ar      1     ****    0.0000
    589 C           4.0413   -5.5624   36.1652 C.ar      1     ****    0.0000
    590 C           5.1095   -4.6006   36.1652 C.ar      1     ****    0.0000
    591 C           6.5390   -2.1246   36.1652 C.ar      1     ****    0.0000
    592 C           6.8378   -0.7187   36.1652 C.ar      1     ****    0.0000
    593 C           6.5390    2.1246   36.1652 C.ar      1     ****    0.0000
    594 C           5.9544    3.4377   36.1652 C.ar      1     ****    0.0000
    595 C           4.0413    5.5624   36.1652 C.ar      1     ****    0.0000
    596 C           2.7965    6.2811   36.1652 C.ar      1     ****    0.0000
    597 C          -0.0000    6.8755   36.1652 C.ar      1     ****    0.0000
    598 C          -1.4295    6.7252   36.1652 C.ar      1     ****    0.0000
    599 C          -4.0413    5.5624   36.1652 C.ar      1     ****    0.0000
    600 C          -5.1095    4.6006   36.1652 C.ar      1     ****    0.0000
    601 C          -6.8755   -0.0000   37.4123 C.ar      1     ****    0.0000
    602 C          -6.7252   -1.4295   37.4123 C.ar      1     ****    0.0000
    603 C          -5.5624   -4.0413   37.4123 C.ar      1     ****    0.0000
    604 C          -4.6006   -5.1095   37.4123 C.ar      1     ****    0.0000
    605 C          -2.1246   -6.5390   37.4123 C.ar      1     ****    0.0000
    606 C          -0.7187   -6.8378   37.4123 C.ar      1     ****    0.0000
    607 C           2.1246   -6.5390   37.4123 C.ar      1     ****    0.0000
    608 C           3.4377   -5.9544   37.4123 C.ar      1     ****    0.0000
    609 C           5.5624   -4.0413   37.4123 C.ar      1     ****    0.0000
    610 C           6.2811   -2.7965   37.4123 C.ar      1     ****    0.0000
    611 C           6.8755    0.0000   37.4123 C.ar      1     ****    0.0000
    612 C           6.7252    1.4295   37.4123 C.ar      1     ****    0.0000
    613 C           5.5624    4.0413   37.4123 C.ar      1     ****    0.0000
    614 C           4.6006    5.1095   37.4123 C.ar      1     ****    0.0000
    615 C           2.1246    6.5390   37.4123 C.ar      1     ****    0.0000
    616 C           0.7187    6.8378   37.4123 C.ar      1     ****    0.0000
    617 C          -2.1246    6.5390   37.4123 C.ar      1     ****    0.0000
    618 C          -3.4377    5.9544   37.4123 C.ar      1     ****    0.0000
    619 C          -5.5624    4.0413   37.4123 C.ar      1     ****    0.0000
    620 C          -6.2811    2.7965   37.4123 C.ar      1     ****    0.0000
    621 C          -6.5390   -2.1246   38.6594 C.ar      1     ****    0.0000
    622 C          -5.9544   -3.4377   38.6594 C.ar      1     ****    0.0000
    623 C          -4.0413   -5.5624   38.6594 C.ar      1     ****    0.0000
    624 C          -2.7965   -6.2811   38.6594 C.ar      1     ****    0.0000
    625 C           0.0000   -6.8755   38.6594 C.ar      1     ****    0.0000
    626 C           1.4295   -6.7252   38.6594 C.ar      1     ****    0.0000
    627 C           4.0413   -5.5624   38.6594 C.ar      1     ****    0.0000
    628 C           5.1095   -4.6006   38.6594 C.ar      1     ****    0.0000
    629 C           6.5390   -2.1246   38.6594 C.ar      1     ****    0.0000
    630 C           6.8378   -0.7187   38.6594 C.ar      1     ****    0.0000
    631 C           6.5390    2.1246   38.6594 C.ar      1     ****    0.0000
    632 C           5.9544    3.4377   38.6594 C.ar      1     ****    0.0000
    633 C           4.0413    5.5624   38.6594 C.ar      1     ****    0.0000
    634 C           2.7965    6.2811   38.6594 C.ar      1     ****    0.0000
    635 C          -0.0000    6.8755   38.6594 C.ar      1     ****    0.0000
    636 C          -1.4295    6.7252   38.6594 C.ar      1     ****    0.0000
    637 C          -4.0413    5.5624   38.6594 C.ar      1     ****    0.0000
    638 C          -5.1095    4.6006   38.6594 C.ar      1     ****    0.0000
    639 C          -6.5390    2.1246   38.6594 C.ar      1     ****    0.0000
    640 C          -6.8378    0.7187   38.6594 C.ar      1     ****    0.0000
    641 C          -5.5624   -4.0413   39.9065 C.ar      1     ****    0.0000
    642 C          -4.6006   -5.1095   39.9065 C.ar      1     ****    0.0000
    643 C          -2.1246   -6.5390   39.9065 C.ar      1     ****    0.0000
    644 C          -0.7187   -6.8378   39.9065 C.ar      1     ****    0.0000
    645 C           2.1246   -6.5390   39.9065 C.ar      1     ****    0.0000
    646 C           3.4377   -5.9544   39.9065 C.ar      1     ****    0.0000
    647 C           5.5624   -4.0413   39.9065 C.ar      1     ****    0.0000
    648 C           6.2811   -2.7965   39.9065 C.ar      1     ****    0.0000
    649 C           6.8755    0.0000   39.9065 C.ar      1     ****    0.0000
    650 C           6.7252    1.4295   39.9065 C.ar      1     ****    0.0000
    651 C           5.5624    4.0413   39.9065 C.ar      1     ****    0.0000
    652 C           4.6006    5.1095   39.9065 C.ar      1     ****    0.0000
    653 C           2.1246    6.5390   39.9065 C.ar      1     ****    0.0000
    654 C           0.7187    6.8378   39.9065 C.ar      1     ****    0.0000
    655 C          -2.1246    6.5390   39.9065 C.ar      1     ****    0.0000
    656 C          -3.4377    5.9544   39.9065 C.ar      1     ****    0.0000
    657 C          -5.5624    4.0413   39.9065 C.ar      1     ****    0.0000
    658 C          -6.2811    2.7965   39.9065 C.ar      1     ****    0.0000
    659 C          -6.8755   -0.0000   39.9065 C.ar      1     ****    0.0000
    660 C          -6.7252   -1.4295   39.9065 C.ar      1     ****    0.0000
    661 C          -4.0413   -5.5624   41.1535 C.ar      1     ****    0.0000
    662 C          -2.7965   -6.2811   41.1535 C.ar      1     ****    0.0000
    663 C           0.0000   -6.8755   41.1535 C.ar      1     ****    0.0000
    664 C           1.4295   -6.7252   41.1535 C.ar      1     ****    0.0000
    665 C           4.0413   -5.5624   41.1535 C.ar      1     ****    0.0000
    666 C           5.1095   -4.6006   41.1535 C.ar      1     ****    0.0000
    667 C           6.5390   -2.1246   41.1535 C.ar      1     ****    0.0000
    668 C           6.8378   -0.7187   41.1535 C.ar      1     ****    0.0000
    669 C           6.5390    2.1246   41.1535 C.ar      1     ****    0.0000
    670 C           5.9544    3.4377   41.1535 C.ar      1     ****    0.0000
    671 C           4.0413    5.5624   41.1535 C.ar      1     ****    0.0000
    672 C           2.7965    6.2811   41.1535 C.ar      1     ****    0.0000
    673 C          -0.0000    6.8755   41.1535 C.ar      1     ****    0.0000
    674 C          -1.4295    6.7252   41.1535 C.ar      1     ****    0.0000
    675 C          -4.0413    5.5624   41.1535 C.ar      1     ****    0.0000
    676 C          -5.1095    4.6006   41.1535 C.ar      1     ****    0.0000
    677 C          -6.5390    2.1246   41.1535 C.ar      1     ****    0.0000
    678 C          -6.8378    0.7187   41.1535 C.ar      1     ****    0.0000
    679 C          -6.5390   -2.1246   41.1535 C.ar      1     ****    0.0000
    680 C          -5.9544   -3.4377   41.1535 C.ar      1     ****    0.0000
    681 C          -2.1246   -6.5390   42.4006 C.ar      1     ****    0.0000
    682 C          -0.7187   -6.8378   42.4006 C.ar      1     ****    0.0000
    683 C           2.1246   -6.5390   42.4006 C.ar      1     ****    0.0000
    684 C           3.4377   -5.9544   42.4006 C.ar      1     ****    0.0000
    685 C           5.5624   -4.0413   42.4006 C.ar      1     ****    0.0000
    686 C           6.2811   -2.7965   42.4006 C.ar      1     ****    0.0000
    687 C           6.8755    0.0000   42.4006 C.ar      1     ****    0.0000
    688 C           6.7252    1.4295   42.4006 C.ar      1     ****    0.0000
    689 C           5.5624    4.0413   42.4006 C.ar      1     ****    0.0000
    690 C           4.6006    5.1095   42.4006 C.ar      1     ****    0.0000
    691 C           2.1246    6.5390   42.4006 C.ar      1     ****    0.0000
    692 C           0.7187    6.8378   42.4006 C.ar      1     ****    0.0000
    693 C          -2.1246    6.5390   42.4006 C.ar      1     ****    0.0000
    694 C          -3.4377    5.9544   42.4006 C.ar      1     ****    0.0000
    695 C          -5.5624    4.0413   42.4006 C.ar      1     ****    0.0000
    696 C          -6.2811    2.7965   42.4006 C.ar      1     ****    0.0000
    697 C          -6.8755   -0.0000   42.4006 C.ar      1     ****    0.0000
    698 C          -6.7252   -1.4295   42.4006 C.ar      1     ****    0.0000
    699 C          -5.5624   -4.0413   42.4006 C.ar      1     ****    0.0000
    700 C          -4.6006   -5.1095   42.4006 C.ar      1     ****    0.0000
    701 C           0.0000   -6.8755   43.6477 C.ar      1     ****    0.0000
    702 C           1.4295   -6.7252   43.6477 C.ar      1     ****    0.0000
    703 C           4.0413   -5.5624   43.6477 C.ar      1     ****    0.0000
    704 C           5.1095   -4.6006   43.6477 C.ar      1     ****    0.0000
    705 C           6.5390   -2.1246   43.6477 C.ar      1     ****    0.0000
    706 C           6.8378   -0.7187   43.6477 C.ar      1     ****    0.0000
    707 C           6.5390    2.1246   43.6477 C.ar      1     ****    0.0000
    708 C           5.9544    3.4377   43.6477 C.ar      1     ****    0.0000
    709 C           4.0413    5.5624   43.6477 C.ar      1     ****    0.0000
    710 C           2.7965    6.2811   43.6477 C.ar      1     ****    0.0000
    711 C          -0.0000    6.8755   43.6477 C.ar      1     ****    0.0000
    712 C          -1.4295    6.7252   43.6477 C.ar      1     ****    0.0000
    713 C          -4.0413    5.5624   43.6477 C.ar      1     ****    0.0000
    714 C          -5.1095    4.6006   43.6477 C.ar      1     ****    0.0000
    715 C          -6.5390    2.1246   43.6477 C.ar      1     ****    0.0000
    716 C          -6.8378    0.7187   43.6477 C.ar      1     ****    0.0000
    717 C          -6.5390   -2.1246   43.6477 C.ar      1     ****    0.0000
    718 C          -5.9544   -3.4377   43.6477 C.ar      1     ****    0.0000
    719 C          -4.0413   -5.5624   43.6477 C.ar      1     ****    0.0000
    720 C          -2.7965   -6.2811   43.6477 C.ar      1     ****    0.0000
    721 C           2.1246   -6.5390   44.8948 C.ar      1     ****    0.0000
    722 C           3.4377   -5.9544   44.8948 C.ar      1     ****    0.0000
    723 C           5.5624   -4.0413   44.8948 C.ar      1     ****    0.0000
    724 C           6.2811   -2.7965   44.8948 C.ar      1     ****    0.0000
    725 C           6.8755    0.0000   44.8948 C.ar      1     ****    0.0000
    726 C           6.7252    1.4295   44.8948 C.ar      1     ****    0.0000
    727 C           5.5624    4.0413   44.8948 C.ar      1     ****    0.0000
    728 C           4.6006    5.1095   44.8948 C.ar      1     ****    0.0000
    729 C           2.1246    6.5390   44.8948 C.ar      1     ****    0.0000
    730 C           0.7187    6.8378   44.8948 C.ar      1     ****    0.0000
    731 C          -2.1246    6.5390   44.8948 C.ar      1     ****    0.0000
    732 C          -3.4377    5.9544   44.8948 C.ar      1     ****    0.0000
    733 C          -5.5624    4.0413   44.8948 C.ar      1     ****    0.0000
    734 C          -6.2811    2.7965   44.8948 C.ar      1     ****    0.0000
    735 C          -6.8755   -0.0000   44.8948 C.ar      1     ****    0.0000
    736 C          -6.7252   -1.4295   44.8948 C.ar      1     ****    0.0000
    737 C          -5.5624   -4.0413   44.8948 C.ar      1     ****    0.0000
    738 C          -4.6006   -5.1095   44.8948 C.ar      1     ****    0.0000
    739 C          -2.1246   -6.5390   44.8948 C.ar      1     ****    0.0000
    740 C          -0.7187   -6.8378   44.8948 C.ar      1     ****    0.0000
    741 C           4.0413   -5.5624   46.1418 C.ar      1     ****    0.0000
    742 C           5.1095   -4.6006   46.1418 C.ar      1     ****    0.0000
    743 C           6.5390   -2.1246   46.1418 C.ar      1     ****    0.0000
    744 C           6.8378   -0.7187   46.1418 C.ar      1     ****    0.0000
    745 C           6.5390    2.1246   46.1418 C.ar      1     ****    0.0000
    746 C           5.9544    3.4377   46.1418 C.ar      1     ****    0.0000
    747 C           4.0413    5.5624   46.1418 C.ar      1     ****    0.0000
    748 C           2.7965    6.2811   46.1418 C.ar      1     ****    0.0000
    749 C          -0.0000    6.8755   46.1418 C.ar      1     ****    0.0000
    750 C          -1.4295    6.7252   46.1418 C.ar      1     ****    0.0000
    751 C          -4.0413    5.5624   46.1418 C.ar      1     ****    0.0000
    752 C          -5.1095    4.6006   46.1418 C.ar      1     ****    0.0000
    753 C          -6.5390    2.1246   46.1418 C.ar      1     ****    0.0000
    754 C          -6.8378    0.7187   46.1418 C.ar      1     ****    0.0000
    755 C          -6.5390   -2.1246   46.1418 C.ar      1     ****    0.0000
    756 C          -5.9544   -3.4377   46.1418 C.ar      1     ****    0.0000
    757 C          -4.0413   -5.5624   46.1418 C.ar      1     ****    0.0000
    758 C          -2.7965   -6.2811   46.1418 C.ar      1     ****    0.0000
    759 C           0.0000   -6.8755   46.1418 C.ar      1     ****    0.0000
    760 C           1.4295   -6.7252   46.1418 C.ar      1     ****    0.0000
    761 C           5.5624   -4.0413   47.3889 C.ar      1     ****    0.0000
    762 C           6.2811   -2.7965   47.3889 C.ar      1     ****    0.0000
    763 C           6.8755    0.0000   47.3889 C.ar      1     ****    0.0000
    764 C           6.7252    1.4295   47.3889 C.ar      1     ****    0.0000
    765 C           5.5624    4.0413   47.3889 C.ar      1     ****    0.0000
    766 C           4.6006    5.1095   47.3889 C.ar      1     ****    0.0000
    767 C           2.1246    6.5390   47.3889 C.ar      1     ****    0.0000
    768 C           0.7187    6.8378   47.3889 C.ar      1     ****    0.0000
    769 C          -2.1246    6.5390   47.3889 C.ar      1     ****    0.0000
    770 C          -3.4377    5.9544   47.3889 C.ar      1     ****    0.0000
    771 C          -5.5624    4.0413   47.3889 C.ar      1     ****    0.0000
    772 C          -6.2811    2.7965   47.3889 C.ar      1     ****    0.0000
    773 C          -6.8755   -0.0000   47.3889 C.ar      1     ****    0.0000
    774 C          -6.7252   -1.4295   47.3889 C.ar      1     ****    0.0000
    775 C          -5.5624   -4.0413   47.3889 C.ar      1     ****    0.0000
    776 C          -4.6006   -5.1095   47.3889 C.ar      1     ****    0.0000
    777 C          -2.1246   -6.5390   47.3889 C.ar      1     ****    0.0000
    778 C          -0.7187   -6.8378   47.3889 C.ar      1     ****    0.0000
    779 C           2.1246   -6.5390   47.3889 C.ar      1     ****    0.0000
    780 C           3.4377   -5.9544   47.3889 C.ar      1     ****    0.0000
    781 C           6.5390   -2.1246   48.6360 C.ar      1     ****    0.0000
    782 C           6.8378   -0.7187   48.6360 C.ar      1     ****    0.0000
    783 C           6.5390    2.1246   48.6360 C.ar      1     ****    0.0000
    784 C           5.9544    3.4377   48.6360 C.ar      1     ****    0.0000
    785 C           4.0413    5.5624   48.6360 C.ar      1     ****    0.0000
    786 C           2.7965    6.2811   48.6360 C.ar      1     ****    0.0000
    787 C          -0.0000    6.8755   48.6360 C.ar      1     ****    0.0000
    788 C          -1.4295    6.7252   48.6360 C.ar      1     ****    0.0000
    789 C          -4.0413    5.5624   48.6360 C.ar      1     ****    0.0000
    790 C          -5.1095    4.6006   48.6360 C.ar      1     ****    0.0000
    791 C          -6.5390    2.1246   48.6360 C.ar      1     ****    0.0000
    792 C          -6.8378    0.7187   48.6360 C.ar      1     ****    0.0000
    793 C          -6.5390   -2.1246   48.6360 C.ar      1     ****    0.0000
    794 C          -5.9544   -3.4377   48.6360 C.ar      1     ****    0.0000
    795 C          -4.0413   -5.5624   48.6360 C.ar      1     ****    0.0000
    796 C          -2.7965   -6.2811   48.6360 C.ar      1     ****    0.0000
    797 C           0.0000   -6.8755   48.6360 C.ar      1     ****    0.0000
    798 C           1.4295   -6.7252   48.6360 C.ar      1     ****    0.0000
    799 C           4.0413   -5.5624   48.6360 C.ar      1     ****    0.0000
    800 C           5.1095   -4.6006   48.6360 C.ar      1     ****    0.0000
    801 C           6.8755    0.0000   49.8831 C.ar      1     ****    0.0000
    802 C           6.7252    1.4295   49.8831 C.ar      1     ****    0.0000
    803 C           5.5624    4.0413   49.8831 C.ar      1     ****    0.0000
    804 C           4.6006    5.1095   49.8831 C.ar      1     ****    0.0000
    805 C           2.1246    6.5390   49.8831 C.ar      1     ****    0.0000
    806 C           0.7187    6.8378   49.8831 C.ar      1     ****    0.0000
    807 C          -2.1246    6.5390   49.8831 C.ar      1     ****    0.0000
    808 C          -3.4377    5.9544   49.8831 C.ar      1     ****    0.0000
    809 C          -5.5624    4.0413   49.8831 C.ar      1     ****    0.0000
    810 C          -6.2811    2.7965   49.8831 C.ar      1     ****    0.0000
    811 C          -6.8755   -0.0000   49.8831 C.ar      1     ****    0.0000
    812 C          -6.7252   -1.4295   49.8831 C.ar      1     ****    0.0000
    813 C          -5.5624   -4.0413   49.8831 C.ar      1     ****    0.0000
    814 C          -4.6006   -5.1095   49.8831 C.ar      1     ****    0.0000
    815 C          -2.1246   -6.5390   49.8831 C.ar      1     ****    0.0000
    816 C          -0.7187   -6.8378   49.8831 C.ar      1     ****    0.0000
    817 C           2.1246   -6.5390   49.8831 C.ar      1     ****    0.0000
    818 C           3.4377   -5.9544   49.8831 C.ar      1     ****    0.0000
    819 C           5.5624   -4.0413   49.8831 C.ar      1     ****    0.0000
    820 C           6.2811   -2.7965   49.8831 C.ar      1     ****    0.0000
    821 C           6.5390    2.1246   51.1301 C.ar      1     ****    0.0000
    822 C           5.9544    3.4377   51.1301 C.ar      1     ****    0.0000
    823 C           4.0413    5.5624   51.1301 C.ar      1     ****    0.0000
    824 C           2.7965    6.2811   51.1301 C.ar      1     ****    0.0000
    825 C          -0.0000    6.8755   51.1301 C.ar      1     ****    0.0000
    826 C          -1.4295    6.7252   51.1301 C.ar      1     ****    0.0000
    827 C          -4.0413    5.5624   51.1301 C.ar      1     ****    0.0000
    828 C          -5.1095    4.6006   51.1301 C.ar      1     ****    0.0000
    829 C          -6.5390    2.1246   51.1301 C.ar      1     ****    0.0000
    830 C          -6.8378    0.7187   51.1301 C.ar      1     ****    0.0000
    831 C          -6.5390   -2.1246   51.1301 C.ar      1     ****    0.0000
    832 C          -5.9544   -3.4377   51.1301 C.ar      1     ****    0.0000
    833 C          -4.0413   -5.5624   51.1301 C.ar      1     ****    0.0000
    834 C          -2.7965   -6.2811   51.1301 C.ar      1     ****    0.0000
    835 C           0.0000   -6.8755   51.1301 C.ar      1     ****    0.0000
    836 C           1.4295   -6.7252   51.1301 C.ar      1     ****    0.0000
    837 C           4.0413   -5.5624   51.1301 C.ar      1     ****    0.0000
    838 C           5.1095   -4.6006   51.1301 C.ar      1     ****    0.0000
    839 C           6.5390   -2.1246   51.1301 C.ar      1     ****    0.0000
    840 C           6.8378   -0.7187   51.1301 C.ar      1     ****    0.0000
    841 C           5.5624    4.0413   52.3772 C.ar      1     ****    0.0000
    842 C           4.6006    5.1095   52.3772 C.ar      1     ****    0.0000
    843 C           2.1246    6.5390   52.3772 C.ar      1     ****    0.0000
    844 C           0.7187    6.8378   52.3772 C.ar      1     ****    0.0000
    845 C          -2.1246    6.5390   52.3772 C.ar      1     ****    0.0000
    846 C          -3.4377    5.9544   52.3772 C.ar      1     ****    0.0000
    847 C          -5.5624    4.0413   52.3772 C.ar      1     ****    0.0000
    848 C          -6.2811    2.7965   52.3772 C.ar      1     ****    0.0000
    849 C          -6.8755   -0.0000   52.3772 C.ar      1     ****    0.0000
    850 C          -6.7252   -1.4295   52.3772 C.ar      1     ****    0.0000
    851 C          -5.5624   -4.0413   52.3772 C.ar      1     ****    0.0000
    852 C          -4.6006   -5.1095   52.3772 C.ar      1     ****    0.0000
    853 C          -2.1246   -6.5390   52.3772 C.ar      1     ****    0.0000
    854 C          -0.7187   -6.8378   52.3772 C.ar      1     ****    0.0000
    855 C           2.1246   -6.5390   52.3772 C.ar      1     ****    0.0000
    856 C           3.4377   -5.9544   52.3772 C.ar      1     ****    0.0000
    857 C           5.5624   -4.0413   52.3772 C.ar      1     ****    0.0000
    858 C           6.2811   -2.7965   52.3772 C.ar      1     ****    0.0000
    859 C           6.8755    0.0000   52.3772 C.ar      1     ****    0.0000
    860 C           6.7252    1.4295   52.3772 C.ar      1     ****    0.0000
    861 C           4.0413    5.5624   53.6243 C.ar      1     ****    0.0000
    862 C           2.7965    6.2811   53.6243 C.ar      1     ****    0.0000
    863 C          -0.0000    6.8755   53.6243 C.ar      1     ****    0.0000
    864 C          -1.4295    6.7252   53.6243 C.ar      1     ****    0.0000
    865 C          -4.0413    5.5624   53.6243 C.ar      1     ****    0.0000
    866 C          -5.1095    4.6006   53.6243 C.ar      1     ****    0.0000
    867 C          -6.5390    2.1246   53.6243 C.ar      1     ****    0.0000
    868 C          -6.8378    0.7187   53.6243 C.ar      1     ****    0.0000
    869 C          -6.5390   -2.1246   53.6243 C.ar      1     ****    0.0000
    870 C          -5.9544   -3.4377   53.6243 C.ar      1     ****    0.0000
    871 C          -4.0413   -5.5624   53.6243 C.ar      1     ****    0.0000
    872 C          -2.7965   -6.2811   53.6243 C.ar      1     ****    0.0000
    873 C           0.0000   -6.8755   53.6243 C.ar      1     ****    0.0000
    874 C           1.4295   -6.7252   53.6243 C.ar      1     ****    0.0000
    875 C           4.0413   -5.5624   53.6243 C.ar      1     ****    0.0000
    876 C           5.1095   -4.6006   53.6243 C.ar      1     ****    0.0000
    877 C           6.5390   -2.1246   53.6243 C.ar      1     ****    0.0000
    878 C           6.8378   -0.7187   53.6243 C.ar      1     ****    0.0000
    879 C           6.5390    2.1246   53.6243 C.ar      1     ****    0.0000
    880 C           5.9544    3.4377   53.6243 C.ar      1     ****    0.0000
    881 C           2.1246    6.5390   54.8714 C.ar      1     ****    0.0000
    882 C           0.7187    6.8378   54.8714 C.ar      1     ****    0.0000
    883 C          -2.1246    6.5390   54.8714 C.ar      1     ****    0.0000
    884 C          -3.4377    5.9544   54.8714 C.ar      1     ****    0.0000
    885 C          -5.5624    4.0413   54.8714 C.ar      1     ****    0.0000
    886 C          -6.2811    2.7965   54.8714 C.ar      1     ****    0.0000
    887 C          -6.8755   -0.0000   54.8714 C.ar      1     ****    0.0000
    888 C          -6.7252   -1.4295   54.8714 C.ar      1     ****    0.0000
    889 C          -5.5624   -4.0413   54.8714 C.ar      1     ****    0.0000
    890 C          -4.6006   -5.1095   54.8714 C.ar      1     ****    0.0000
    891 C          -2.1246   -6.5390   54.8714 C.ar      1     ****    0.0000
    892 C          -0.7187   -6.8378   54.8714 C.ar      1     ****    0.0000
    893 C           2.1246   -6.5390   54.8714 C.ar      1     ****    0.0000
    894 C           3.4377   -5.9544   54.8714 C.ar      1     ****    0.0000
    895 C           5.5624   -4.0413   54.8714 C.ar      1     ****    0.0000
    896 C           6.2811   -2.7965   54.8714 C.ar      1     ****    0.0000
    897 C           6.8755    0.0000   54.8714 C.ar      1     ****    0.0000
    898 C           6.7252    1.4295   54.8714 C.ar      1     ****    0.0000
    899 C           5.5624    4.0413   54.8714 C.ar      1     ****    0.0000
    900 C           4.6006    5.1095   54.8714 C.ar      1     ****    0.0000
    901 C          -0.0000    6.8755   56.1184 C.ar      1     ****    0.0000
    902 C          -1.4295    6.7252   56.1184 C.ar      1     ****    0.0000
    903 C          -4.0413    5.5624   56.1184 C.ar      1     ****    0.0000
    904 C          -5.1095    4.6006   56.1184 C.ar      1     ****    0.0000
    905 C          -6.5390    2.1246   56.1184 C.ar      1     ****    0.0000
    906 C          -6.8378    0.7187   56.1184 C.ar      1     ****    0.0000
    907 C          -6.5390   -2.1246   56.1184 C.ar      1     ****    0.0000
    908 C          -5.9544   -3.4377   56.1184 C.ar      1     ****    0.0000
    909 C          -4.0413   -5.5624   56.1184 C.ar      1     ****    0.0000
    910 C          -2.7965   -6.2811   56.1184 C.ar      1     ****    0.0000
    911 C           0.0000   -6.8755   56.1184 C.ar      1     ****    0.0000
    912 C           1.4295   -6.7252   56.1184 C.ar      1     ****    0.0000
    913 C           4.0413   -5.5624   56.1184 C.ar      1     ****    0.0000
    914 C           5.1095   -4.6006   56.1184 C.ar      1     ****    0.0000
    915 C           6.5390   -2.1246   56.1184 C.ar      1     ****    0.0000
    916 C           6.8378   -0.7187   56.1184 C.ar      1     ****    0.0000
    917 C           6.5390    2.1246   56.1184 C.ar      1     ****    0.0000
    918 C           5.9544    3.4377   56.1184 C.ar      1     ****    0.0000
    919 C           4.0413    5.5624   56.1184 C.ar      1     ****    0.0000
    920 C           2.7965    6.2811   56.1184 C.ar      1     ****    0.0000
    921 C          -2.1246    6.5390   57.3655 C.ar      1     ****    0.0000
    922 C          -3.4377    5.9544   57.3655 C.ar      1     ****    0.0000
    923 C          -5.5624    4.0413   57.3655 C.ar      1     ****    0.0000
    924 C          -6.2811    2.7965   57.3655 C.ar      1     ****    0.0000
    925 C          -6.8755   -0.0000   57.3655 C.ar      1     ****    0.0000
    926 C          -6.7252   -1.4295   57.3655 C.ar      1     ****    0.0000
    927 C          -5.5624   -4.0413   57.3655 C.ar      1     ****    0.0000
    928 C          -4.6006   -5.1095   57.3655 C.ar      1     ****    0.0000
    929 C          -2.1246   -6.5390   57.3655 C.ar      1     ****    0.0000
    930 C          -0.7187   -6.8378   57.3655 C.ar      1     ****    0.0000
    931 C           2.1246   -6.5390   57.3655 C.ar      1     ****    0.0000
    932 C           3.4377   -5.9544   57.3655 C.ar      1     ****    0.0000
    933 C           5.5624   -4.0413   57.3655 C.ar      1     ****    0.0000
    934 C           6.2811   -2.7965   57.3655 C.ar      1     ****    0.0000
    935 C           6.8755    0.0000   57.3655 C.ar      1     ****    0.0000
    936 C           6.7252    1.4295   57.3655 C.ar      1     ****    0.0000
    937 C           5.5624    4.0413   57.3655 C.ar      1     ****    0.0000
    938 C           4.6006    5.1095   57.3655 C.ar      1     ****    0.0000
    939 C           2.1246    6.5390   57.3655 C.ar      1     ****    0.0000
    940 C           0.7187    6.8378   57.3655 C.ar      1     ****    0.0000
    941 C          -4.0413    5.5624   58.6126 C.ar      1     ****    0.0000
    942 C          -5.1095    4.6006   58.6126 C.ar      1     ****    0.0000
    943 C          -6.5390    2.1246   58.6126 C.ar      1     ****    0.0000
    944 C          -6.8378    0.7187   58.6126 C.ar      1     ****    0.0000
    945 C          -6.5390   -2.1246   58.6126 C.ar      1     ****    0.0000
    946 C          -5.9544   -3.4377   58.6126 C.ar      1     ****    0.0000
    947 C          -4.0413   -5.5624   58.6126 C.ar      1     ****    0.0000
    948 C          -2.7965   -6.2811   58.6126 C.ar      1     ****    0.0000
    949 C           0.0000   -6.8755   58.6126 C.ar      1     ****    0.0000
    950 C           1.4295   -6.7252   58.6126 C.ar      1     ****    0.0000
    951 C           4.0413   -5.5624   58.6126 C.ar      1     ****    0.0000
    952 C           5.1095   -4.6006   58.6126 C.ar      1     ****    0.0000
    953 C           6.5390   -2.1246   58.6126 C.ar      1     ****    0.0000
    954 C           6.8378   -0.7187   58.6126 C.ar      1     ****    0.0000
    955 C           6.5390    2.1246   58.6126 C.ar      1     ****    0.0000
    956 C           5.9544    3.4377   58.6126 C.ar      1     ****    0.0000
    957 C           4.0413    5.5624   58.6126 C.ar      1     ****    0.0000
    958 C           2.7965    6.2811   58.6126 C.ar      1     ****    0.0000
    959 C          -0.0000    6.8755   58.6126 C.ar      1     ****    0.0000
    960 C          -1.4295    6.7252   58.6126 C.ar      1     ****    0.0000
    961 C          -5.5624    4.0413   59.8597 C.ar      1     ****    0.0000
    962 C          -6.2811    2.7965   59.8597 C.ar      1     ****    0.0000
    963 C          -6.8755   -0.0000   59.8597 C.ar      1     ****    0.0000
    964 C          -6.7252   -1.4295   59.8597 C.ar      1     ****    0.0000
    965 C          -5.5624   -4.0413   59.8597 C.ar      1     ****    0.0000
    966 C          -4.6006   -5.1095   59.8597 C.ar      1     ****    0.0000
    967 C          -2.1246   -6.5390   59.8597 C.ar      1     ****    0.0000
    968 C          -0.7187   -6.8378   59.8597 C.ar      1     ****    0.0000
    969 C           2.1246   -6.5390   59.8597 C.ar      1     ****    0.0000
    970 C           3.4377   -5.9544   59.8597 C.ar      1     ****    0.0000
    971 C           5.5624   -4.0413   59.8597 C.ar      1     ****    0.0000
    972 C           6.2811   -2.7965   59.8597 C.ar      1     ****    0.0000
    973 C           6.8755    0.0000   59.8597 C.ar      1     ****    0.0000
    974 C           6.7252    1.4295   59.8597 C.ar      1     ****    0.0000
    975 C           5.5624    4.0413   59.8597 C.ar      1     ****    0.0000
    976 C           4.6006    5.1095   59.8597 C.ar      1     ****    0.0000
    977 C           2.1246    6.5390   59.8597 C.ar      1     ****    0.0000
    978 C           0.7187    6.8378   59.8597 C.ar      1     ****    0.0000
    979 C          -2.1246    6.5390   59.8597 C.ar      1     ****    0.0000
    980 C          -3.4377    5.9544   59.8597 C.ar      1     ****    0.0000
    981 C          -6.5390    2.1246   61.1068 C.ar      1     ****    0.0000
    982 C          -6.8378    0.7187   61.1068 C.ar      1     ****    0.0000
    983 C          -6.5390   -2.1246   61.1068 C.ar      1     ****    0.0000
    984 C          -5.9544   -3.4377   61.1068 C.ar      1     ****    0.0000
    985 C          -4.0413   -5.5624   61.1068 C.ar      1     ****    0.0000
    986 C          -2.7965   -6.2811   61.1068 C.ar      1     ****    0.0000
    987 C           0.0000   -6.8755   61.1068 C.ar      1     ****    0.0000
    988 C           1.4295   -6.7252   61.1068 C.ar      1     ****    0.0000
    989 C           4.0413   -5.5624   61.1068 C.ar      1     ****    0.0000
    990 C           5.1095   -4.6006   61.1068 C.ar      1     ****    0.0000
    991 C           6.5390   -2.1246   61.1068 C.ar      1     ****    0.0000
    992 C           6.8378   -0.7187   61.1068 C.ar      1     ****    0.0000
    993 C           6.5390    2.1246   61.1068 C.ar      1     ****    0.0000
    994 C           5.9544    3.4377   61.1068 C.ar      1     ****    0.0000
    995 C           4.0413    5.5624   61.1068 C.ar      1     ****    0.0000
    996 C           2.7965    6.2811   61.1068 C.ar      1     ****    0.0000
    997 C          -0.0000    6.8755   61.1068 C.ar      1     ****    0.0000
    998 C          -1.4295    6.7252   61.1068 C.ar      1     ****    0.0000
    999 C          -4.0413    5.5624   61.1068 C.ar      1     ****    0.0000
   1000 C          -5.1095    4.6006   61.1068 C.ar      1     ****    0.0000
   1001 C          -6.8755   -0.0000   62.3538 C.ar      1     ****    0.0000
   1002 C          -6.7252   -1.4295   62.3538 C.ar      1     ****    0.0000
   1003 C          -5.5624   -4.0413   62.3538 C.ar      1     ****    0.0000
   1004 C          -4.6006   -5.1095   62.3538 C.ar      1     ****    0.0000
   1005 C          -2.1246   -6.5390   62.3538 C.ar      1     ****    0.0000
   1006 C          -0.7187   -6.8378   62.3538 C.ar      1     ****    0.0000
   1007 C           2.1246   -6.5390   62.3538 C.ar      1     ****    0.0000
   1008 C           3.4377   -5.9544   62.3538 C.ar      1     ****    0.0000
   1009 C           5.5624   -4.0413   62.3538 C.ar      1     ****    0.0000
   1010 C           6.2811   -2.7965   62.3538 C.ar      1     ****    0.0000
   1011 C           6.8755    0.0000   62.3538 C.ar      1     ****    0.0000
   1012 C           6.7252    1.4295   62.3538 C.ar      1     ****    0.0000
   1013 C           5.5624    4.0413   62.3538 C.ar      1     ****    0.0000
   1014 C           4.6006    5.1095   62.3538 C.ar      1     ****    0.0000
   1015 C           2.1246    6.5390   62.3538 C.ar      1     ****    0.0000
   1016 C           0.7187    6.8378   62.3538 C.ar      1     ****    0.0000
   1017 C          -2.1246    6.5390   62.3538 C.ar      1     ****    0.0000
   1018 C          -3.4377    5.9544   62.3538 C.ar      1     ****    0.0000
   1019 C          -5.5624    4.0413   62.3538 C.ar      1     ****    0.0000
   1020 C          -6.2811    2.7965   62.3538 C.ar      1     ****    0.0000
   1021 C          -6.5390   -2.1246   63.6009 C.ar      1     ****    0.0000
   1022 C          -5.9544   -3.4377   63.6009 C.ar      1     ****    0.0000
   1023 C          -4.0413   -5.5624   63.6009 C.ar      1     ****    0.0000
   1024 C          -2.7965   -6.2811   63.6009 C.ar      1     ****    0.0000
   1025 C           0.0000   -6.8755   63.6009 C.ar      1     ****    0.0000
   1026 C           1.4295   -6.7252   63.6009 C.ar      1     ****    0.0000
   1027 C           4.0413   -5.5624   63.6009 C.ar      1     ****    0.0000
   1028 C           5.1095   -4.6006   63.6009 C.ar      1     ****    0.0000
   1029 C           6.5390   -2.1246   63.6009 C.ar      1     ****    0.0000
   1030 C           6.8378   -0.7187   63.6009 C.ar      1     ****    0.0000
   1031 C           6.5390    2.1246   63.6009 C.ar      1     ****    0.0000
   1032 C           5.9544    3.4377   63.6009 C.ar      1     ****    0.0000
   1033 C           4.0413    5.5624   63.6009 C.ar      1     ****    0.0000
   1034 C           2.7965    6.2811   63.6009 C.ar      1     ****    0.0000
   1035 C          -0.0000    6.8755   63.6009 C.ar      1     ****    0.0000
   1036 C          -1.4295    6.7252   63.6009 C.ar      1     ****    0.0000
   1037 C          -4.0413    5.5624   63.6009 C.ar      1     ****    0.0000
   1038 C          -5.1095    4.6006   63.6009 C.ar      1     ****    0.0000
   1039 C          -6.5390    2.1246   63.6009 C.ar      1     ****    0.0000
   1040 C          -6.8378    0.7187   63.6009 C.ar      1     ****    0.0000
   1041 C          -5.5624   -4.0413   64.8480 C.ar      1     ****    0.0000
   1042 C          -4.6006   -5.1095   64.8480 C.ar      1     ****    0.0000
   1043 C          -2.1246   -6.5390   64.8480 C.ar      1     ****    0.0000
   1044 C          -0.7187   -6.8378   64.8480 C.ar      1     ****    0.0000
   1045 C           2.1246   -6.5390   64.8480 C.ar      1     ****    0.0000
   1046 C           3.4377   -5.9544   64.8480 C.ar      1     ****    0.0000
   1047 C           5.5624   -4.0413   64.8480 C.ar      1     ****    0.0000
   1048 C           6.2811   -2.7965   64.8480 C.ar      1     ****    0.0000
   1049 C           6.8755    0.0000   64.8480 C.ar      1     ****    0.0000
   1050 C           6.7252    1.4295   64.8480 C.ar      1     ****    0.0000
   1051 C           5.5624    4.0413   64.8480 C.ar      1     ****    0.0000
   1052 C           4.6006    5.1095   64.8480 C.ar      1     ****    0.0000
   1053 C           2.1246    6.5390   64.8480 C.ar      1     ****    0.0000
   1054 C           0.7187    6.8378   64.8480 C.ar      1     ****    0.0000
   1055 C          -2.1246    6.5390   64.8480 C.ar      1     ****    0.0000
   1056 C          -3.4377    5.9544   64.8480 C.ar      1     ****    0.0000
   1057 C          -5.5624    4.0413   64.8480 C.ar      1     ****    0.0000
   1058 C          -6.2811    2.7965   64.8480 C.ar      1     ****    0.0000
   1059 C          -6.8755   -0.0000   64.8480 C.ar      1     ****    0.0000
   1060 C          -6.7252   -1.4295   64.8480 C.ar      1     ****    0.0000
   1061 C          -4.0413   -5.5624   66.0951 C.ar      1     ****    0.0000
   1062 C          -2.7965   -6.2811   66.0951 C.ar      1     ****    0.0000
   1063 C           0.0000   -6.8755   66.0951 C.ar      1     ****    0.0000
   1064 C           1.4295   -6.7252   66.0951 C.ar      1     ****    0.0000
   1065 C           4.0413   -5.5624   66.0951 C.ar      1     ****    0.0000
   1066 C           5.1095   -4.6006   66.0951 C.ar      1     ****    0.0000
   1067 C           6.5390   -2.1246   66.0951 C.ar      1     ****    0.0000
   1068 C           6.8378   -0.7187   66.0951 C.ar      1     ****    0.0000
   1069 C           6.5390    2.1246   66.0951 C.ar      1     ****    0.0000
   1070 C           5.9544    3.4377   66.0951 C.ar      1     ****    0.0000
   1071 C           4.0413    5.5624   66.0951 C.ar      1     ****    0.0000
   1072 C           2.7965    6.2811   66.0951 C.ar      1     ****    0.0000
   1073 C          -0.0000    6.8755   66.0951 C.ar      1     ****    0.0000
   1074 C          -1.4295    6.7252   66.0951 C.ar      1     ****    0.0000
   1075 C          -4.0413    5.5624   66.0951 C.ar      1     ****    0.0000
   1076 C          -5.1095    4.6006   66.0951 C.ar      1     ****    0.0000
   1077 C          -6.5390    2.1246   66.0951 C.ar      1     ****    0.0000
   1078 C          -6.8378    0.7187   66.0951 C.ar      1     ****    0.0000
   1079 C          -6.5390   -2.1246   66.0951 C.ar      1     ****    0.0000
   1080 C          -5.9544   -3.4377   66.0951 C.ar      1     ****    0.0000
   1081 C          -2.1246   -6.5390   67.3421 C.ar      1     ****    0.0000
   1082 C          -0.7187   -6.8378   67.3421 C.ar      1     ****    0.0000
   1083 C           2.1246   -6.5390   67.3421 C.ar      1     ****    0.0000
   1084 C           3.4377   -5.9544   67.3421 C.ar      1     ****    0.0000
   1085 C           5.5624   -4.0413   67.3421 C.ar      1     ****    0.0000
   1086 C           6.2811   -2.7965   67.3421 C.ar      1     ****    0.0000
   1087 C           6.8755    0.0000   67.3421 C.ar      1     ****    0.0000
   1088 C           6.7252    1.4295   67.3421 C.ar      1     ****    0.0000
   1089 C           5.5624    4.0413   67.3421 C.ar      1     ****    0.0000
   1090 C           4.6006    5.1095   67.3421 C.ar      1     ****    0.0000
   1091 C           2.1246    6.5390   67.3421 C.ar      1     ****    0.0000
   1092 C           0.7187    6.8378   67.3421 C.ar      1     ****    0.0000
   1093 C          -2.1246    6.5390   67.3421 C.ar      1     ****    0.0000
   1094 C          -3.4377    5.9544   67.3421 C.ar      1     ****    0.0000
   1095 C          -5.5624    4.0413   67.3421 C.ar      1     ****    0.0000
   1096 C          -6.2811    2.7965   67.3421 C.ar      1     ****    0.0000
   1097 C          -6.8755   -0.0000   67.3421 C.ar      1     ****    0.0000
   1098 C          -6.7252   -1.4295   67.3421 C.ar      1     ****    0.0000
   1099 C          -5.5624   -4.0413   67.3421 C.ar      1     ****    0.0000
   1100 C          -4.6006   -5.1095   67.3421 C.ar      1     ****    0.0000
   1101 C           0.0000   -6.8755   68.5892 C.ar      1     ****    0.0000
   1102 C           1.4295   -6.7252   68.5892 C.ar      1     ****    0.0000
   1103 C           4.0413   -5.5624   68.5892 C.ar      1     ****    0.0000
   1104 C           5.1095   -4.6006   68.5892 C.ar      1     ****    0.0000
   1105 C           6.5390   -2.1246   68.5892 C.ar      1     ****    0.0000
   1106 C           6.8378   -0.7187   68.5892 C.ar      1     ****    0.0000
   1107 C           6.5390    2.1246   68.5892 C.ar      1     ****    0.0000
   1108 C           5.9544    3.4377   68.5892 C.ar      1     ****    0.0000
   1109 C           4.0413    5.5624   68.5892 C.ar      1     ****    0.0000
   1110 C           2.7965    6.2811   68.5892 C.ar      1     ****    0.0000
   1111 C          -0.0000    6.8755   68.5892 C.ar      1     ****    0.0000
   1112 C          -1.4295    6.7252   68.5892 C.ar      1     ****    0.0000
   1113 C          -4.0413    5.5624   68.5892 C.ar      1     ****    0.0000
   1114 C          -5.1095    4.6006   68.5892 C.ar      1     ****    0.0000
   1115 C          -6.5390    2.1246   68.5892 C.ar      1     ****    0.0000
   1116 C          -6.8378    0.7187   68.5892 C.ar      1     ****    0.0000
   1117 C          -6.5390   -2.1246   68.5892 C.ar      1     ****    0.0000
   1118 C          -5.9544   -3.4377   68.5892 C.ar      1     ****    0.0000
   1119 C          -4.0413   -5.5624   68.5892 C.ar      1     ****    0.0000
   1120 C          -2.7965   -6.2811   68.5892 C.ar      1     ****    0.0000
   1121 C           2.1246   -6.5390   69.8363 C.ar      1     ****    0.0000
   1122 C           3.4377   -5.9544   69.8363 C.ar      1     ****    0.0000
   1123 C           5.5624   -4.0413   69.8363 C.ar      1     ****    0.0000
   1124 C           6.2811   -2.7965   69.8363 C.ar      1     ****    0.0000
   1125 C           6.8755    0.0000   69.8363 C.ar      1     ****    0.0000
   1126 C           6.7252    1.4295   69.8363 C.ar      1     ****    0.0000
   1127 C           5.5624    4.0413   69.8363 C.ar      1     ****    0.0000
   1128 C           4.6006    5.1095   69.8363 C.ar      1     ****    0.0000
   1129 C           2.1246    6.5390   69.8363 C.ar      1     ****    0.0000
   1130 C           0.7187    6.8378   69.8363 C.ar      1     ****    0.0000
   1131 C          -2.1246    6.5390   69.8363 C.ar      1     ****    0.0000
   1132 C          -3.4377    5.9544   69.8363 C.ar      1     ****    0.0000
   1133 C          -5.5624    4.0413   69.8363 C.ar      1     ****    0.0000
   1134 C          -6.2811    2.7965   69.8363 C.ar      1     ****    0.0000
   1135 C          -6.8755   -0.0000   69.8363 C.ar      1     ****    0.0000
   1136 C          -6.7252   -1.4295   69.8363 C.ar      1     ****    0.0000
   1137 C          -5.5624   -4.0413   69.8363 C.ar      1     ****    0.0000
   1138 C          -4.6006   -5.1095   69.8363 C.ar      1     ****    0.0000
   1139 C          -2.1246   -6.5390   69.8363 C.ar      1     ****    0.0000
   1140 C          -0.7187   -6.8378   69.8363 C.ar      1     ****    0.0000
   1141 C           4.0413   -5.5624   71.0834 C.ar      1     ****    0.0000
   1142 C           5.1095   -4.6006   71.0834 C.ar      1     ****    0.0000
   1143 C           6.5390   -2.1246   71.0834 C.ar      1     ****    0.0000
   1144 C           6.8378   -0.7187   71.0834 C.ar      1     ****    0.0000
   1145 C           6.5390    2.1246   71.0834 C.ar      1     ****    0.0000
   1146 C           5.9544    3.4377   71.0834 C.ar      1     ****    0.0000
   1147 C           4.0413    5.5624   71.0834 C.ar      1     ****    0.0000
   1148 C           2.7965    6.2811   71.0834 C.ar      1     ****    0.0000
   1149 C          -0.0000    6.8755   71.0834 C.ar      1     ****    0.0000
   1150 C          -1.4295    6.7252   71.0834 C.ar      1     ****    0.0000
   1151 C          -4.0413    5.5624   71.0834 C.ar      1     ****    0.0000
   1152 C          -5.1095    4.6006   71.0834 C.ar      1     ****    0.0000
   1153 C          -6.5390    2.1246   71.0834 C.ar      1     ****    0.0000
   1154 C          -6.8378    0.7187   71.0834 C.ar      1     ****    0.0000
   1155 C          -6.5390   -2.1246   71.0834 C.ar      1     ****    0.0000
   1156 C          -5.9544   -3.4377   71.0834 C.ar      1     ****    0.0000
   1157 C          -4.0413   -5.5624   71.0834 C.ar      1     ****    0.0000
   1158 C          -2.7965   -6.2811   71.0834 C.ar      1     ****    0.0000
   1159 C           0.0000   -6.8755   71.0834 C.ar      1     ****    0.0000
   1160 C           1.4295   -6.7252   71.0834 C.ar      1     ****    0.0000
   1161 C           5.5624   -4.0413   72.3304 C.ar      1     ****    0.0000
   1162 C           6.2811   -2.7965   72.3304 C.ar      1     ****    0.0000
   1163 C           6.8755    0.0000   72.3304 C.ar      1     ****    0.0000
   1164 C           6.7252    1.4295   72.3304 C.ar      1     ****    0.0000
   1165 C           5.5624    4.0413   72.3304 C.ar      1     ****    0.0000
   1166 C           4.6006    5.1095   72.3304 C.ar      1     ****    0.0000
   1167 C           2.1246    6.5390   72.3304 C.ar      1     ****    0.0000
   1168 C           0.7187    6.8378   72.3304 C.ar      1     ****    0.0000
   1169 C          -2.1246    6.5390   72.3304 C.ar      1     ****    0.0000
   1170 C          -3.4377    5.9544   72.3304 C.ar      1     ****    0.0000
   1171 C          -5.5624    4.0413   72.3304 C.ar      1     ****    0.0000
   1172 C          -6.2811    2.7965   72.3304 C.ar      1     ****    0.0000
   1173 C          -6.8755   -0.0000   72.3304 C.ar      1     ****    0.0000
   1174 C          -6.7252   -1.4295   72.3304 C.ar      1     ****    0.0000
   1175 C          -5.5624   -4.0413   72.3304 C.ar      1     ****    0.0000
   1176 C          -4.6006   -5.1095   72.3304 C.ar      1     ****    0.0000
   1177 C          -2.1246   -6.5390   72.3304 C.ar      1     ****    0.0000
   1178 C          -0.7187   -6.8378   72.3304 C.ar      1     ****    0.0000
   1179 C           2.1246   -6.5390   72.3304 C.ar      1     ****    0.0000
   1180 C           3.4377   -5.9544   72.3304 C.ar      1     ****    0.0000
   1181 C           6.5390   -2.1246   73.5775 C.ar      1     ****    0.0000
   1182 C           6.8378   -0.7187   73.5775 C.ar      1     ****    0.0000
   1183 C           6.5390    2.1246   73.5775 C.ar      1     ****    0.0000
   1184 C           5.9544    3.4377   73.5775 C.ar      1     ****    0.0000
   1185 C           4.0413    5.5624   73.5775 C.ar      1     ****    0.0000
   1186 C           2.7965    6.2811   73.5775 C.ar      1     ****    0.0000
   1187 C          -0.0000    6.8755   73.5775 C.ar      1     ****    0.0000
   1188 C          -1.4295    6.7252   73.5775 C.ar      1     ****    0.0000
   1189 C          -4.0413    5.5624   73.5775 C.ar      1     ****    0.0000
   1190 C          -5.1095    4.6006   73.5775 C.ar      1     ****    0.0000
   1191 C          -6.5390    2.1246   73.5775 C.ar      1     ****    0.0000
   1192 C          -6.8378    0.7187   73.5775 C.ar      1     ****    0.0000
   1193 C          -6.5390   -2.1246   73.5775 C.ar      1     ****    0.0000
   1194 C          -5.9544   -3.4377   73.5775 C.ar      1     ****    0.0000
   1195 C          -4.0413   -5.5624   73.5775 C.ar      1     ****    0.0000
   1196 C          -2.7965   -6.2811   73.5775 C.ar      1     ****    0.0000
   1197 C           0.0000   -6.8755   73.5775 C.ar      1     ****    0.0000
   1198 C           1.4295   -6.7252   73.5775 C.ar      1     ****    0.0000
   1199 C           4.0413   -5.5624   73.5775 C.ar      1     ****    0.0000
   1200 C           5.1095   -4.6006   73.5775 C.ar      1     ****    0.0000
   1201 C           6.8755    0.0000   74.8246 C.ar      1     ****    0.0000
   1202 C           6.7252    1.4295   74.8246 C.ar      1     ****    0.0000
   1203 C           5.5624    4.0413   74.8246 C.ar      1     ****    0.0000
   1204 C           4.6006    5.1095   74.8246 C.ar      1     ****    0.0000
   1205 C           2.1246    6.5390   74.8246 C.ar      1     ****    0.0000
   1206 C           0.7187    6.8378   74.8246 C.ar      1     ****    0.0000
   1207 C          -2.1246    6.5390   74.8246 C.ar      1     ****    0.0000
   1208 C          -3.4377    5.9544   74.8246 C.ar      1     ****    0.0000
   1209 C          -5.5624    4.0413   74.8246 C.ar      1     ****    0.0000
   1210 C          -6.2811    2.7965   74.8246 C.ar      1     ****    0.0000
   1211 C          -6.8755   -0.0000   74.8246 C.ar      1     ****    0.0000
   1212 C          -6.7252   -1.4295   74.8246 C.ar      1     ****    0.0000
   1213 C          -5.5624   -4.0413   74.8246 C.ar      1     ****    0.0000
   1214 C          -4.6006   -5.1095   74.8246 C.ar      1     ****    0.0000
   1215 C          -2.1246   -6.5390   74.8246 C.ar      1     ****    0.0000
   1216 C          -0.7187   -6.8378   74.8246 C.ar      1     ****    0.0000
   1217 C           2.1246   -6.5390   74.8246 C.ar      1     ****    0.0000
   1218 C           3.4377   -5.9544   74.8246 C.ar      1     ****    0.0000
   1219 C           5.5624   -4.0413   74.8246 C.ar      1     ****    0.0000
   1220 C           6.2811   -2.7965   74.8246 C.ar      1     ****    0.0000
   1221 C           6.5390    2.1246   76.0717 C.ar      1     ****    0.0000
   1222 C           5.9544    3.4377   76.0717 C.ar      1     ****    0.0000
   1223 C           4.0413    5.5624   76.0717 C.ar      1     ****    0.0000
   1224 C           2.7965    6.2811   76.0717 C.ar      1     ****    0.0000
   1225 C          -0.0000    6.8755   76.0717 C.ar      1     ****    0.0000
   1226 C          -1.4295    6.7252   76.0717 C.ar      1     ****    0.0000
   1227 C          -4.0413    5.5624   76.0717 C.ar      1     ****    0.0000
   1228 C          -5.1095    4.6006   76.0717 C.ar      1     ****    0.0000
   1229 C          -6.5390    2.1246   76.0717 C.ar      1     ****    0.0000
   1230 C          -6.8378    0.7187   76.0717 C.ar      1     ****    0.0000
   1231 C          -6.5390   -2.1246   76.0717 C.ar      1     ****    0.0000
   1232 C          -5.9544   -3.4377   76.0717 C.ar      1     ****    0.0000
   1233 C          -4.0413   -5.5624   76.0717 C.ar      1     ****    0.0000
   1234 C          -2.7965   -6.2811   76.0717 C.ar      1     ****    0.0000
   1235 C           0.0000   -6.8755   76.0717 C.ar      1     ****    0.0000
   1236 C           1.4295   -6.7252   76.0717 C.ar      1     ****    0.0000
   1237 C           4.0413   -5.5624   76.0717 C.ar      1     ****    0.0000
   1238 C           5.1095   -4.6006   76.0717 C.ar      1     ****    0.0000
   1239 C           6.5390   -2.1246   76.0717 C.ar      1     ****    0.0000
   1240 C           6.8378   -0.7187   76.0717 C.ar      1     ****    0.0000
   1241 C           5.5624    4.0413   77.3187 C.ar      1     ****    0.0000
   1242 C           4.6006    5.1095   77.3187 C.ar      1     ****    0.0000
   1243 C           2.1246    6.5390   77.3187 C.ar      1     ****    0.0000
   1244 C           0.7187    6.8378   77.3187 C.ar      1     ****    0.0000
   1245 C          -2.1246    6.5390   77.3187 C.ar      1     ****    0.0000
   1246 C          -3.4377    5.9544   77.3187 C.ar      1     ****    0.0000
   1247 C          -5.5624    4.0413   77.3187 C.ar      1     ****    0.0000
   1248 C          -6.2811    2.7965   77.3187 C.ar      1     ****    0.0000
   1249 C          -6.8755   -0.0000   77.3187 C.ar      1     ****    0.0000
   1250 C          -6.7252   -1.4295   77.3187 C.ar      1     ****    0.0000
   1251 C          -5.5624   -4.0413   77.3187 C.ar      1     ****    0.0000
   1252 C          -4.6006   -5.1095   77.3187 C.ar      1     ****    0.0000
   1253 C          -2.1246   -6.5390   77.3187 C.ar      1     ****    0.0000
   1254 C          -0.7187   -6.8378   77.3187 C.ar      1     ****    0.0000
   1255 C           2.1246   -6.5390   77.3187 C.ar      1     ****    0.0000
   1256 C           3.4377   -5.9544   77.3187 C.ar      1     ****    0.0000
   1257 C           5.5624   -4.0413   77.3187 C.ar      1     ****    0.0000
   1258 C           6.2811   -2.7965   77.3187 C.ar      1     ****    0.0000
   1259 C           6.8755    0.0000   77.3187 C.ar      1     ****    0.0000
   1260 C           6.7252    1.4295   77.3187 C.ar      1     ****    0.0000
   1261 C           4.0413    5.5624   78.5658 C.ar      1     ****    0.0000
   1262 C           2.7965    6.2811   78.5658 C.ar      1     ****    0.0000
   1263 C          -0.0000    6.8755   78.5658 C.ar      1     ****    0.0000
   1264 C          -1.4295    6.7252   78.5658 C.ar      1     ****    0.0000
   1265 C          -4.0413    5.5624   78.5658 C.ar      1     ****    0.0000
   1266 C          -5.1095    4.6006   78.5658 C.ar      1     ****    0.0000
   1267 C          -6.5390    2.1246   78.5658 C.ar      1     ****    0.0000
   1268 C          -6.8378    0.7187   78.5658 C.ar      1     ****    0.0000
   1269 C          -6.5390   -2.1246   78.5658 C.ar      1     ****    0.0000
   1270 C          -5.9544   -3.4377   78.5658 C.ar      1     ****    0.0000
   1271 C          -4.0413   -5.5624   78.5658 C.ar      1     ****    0.0000
   1272 C          -2.7965   -6.2811   78.5658 C.ar      1     ****    0.0000
   1273 C           0.0000   -6.8755   78.5658 C.ar      1     ****    0.0000
   1274 C           1.4295   -6.7252   78.5658 C.ar      1     ****    0.0000
   1275 C           4.0413   -5.5624   78.5658 C.ar      1     ****    0.0000
   1276 C           5.1095   -4.6006   78.5658 C.ar      1     ****    0.0000
   1277 C           6.5390   -2.1246   78.5658 C.ar      1     ****    0.0000
   1278 C           6.8378   -0.7187   78.5658 C.ar      1     ****    0.0000
   1279 C           6.5390    2.1246   78.5658 C.ar      1     ****    0.0000
   1280 C           5.9544    3.4377   78.5658 C.ar      1     ****    0.0000
   1281 C           2.1246    6.5390   79.8129 C.ar      1     ****    0.0000
   1282 C           0.7187    6.8378   79.8129 C.ar      1     ****    0.0000
   1283 C          -2.1246    6.5390   79.8129 C.ar      1     ****    0.0000
   1284 C          -3.4377    5.9544   79.8129 C.ar      1     ****    0.0000
   1285 C          -5.5624    4.0413   79.8129 C.ar      1     ****    0.0000
   1286 C          -6.2811    2.7965   79.8129 C.ar      1     ****    0.0000
   1287 C          -6.8755   -0.0000   79.8129 C.ar      1     ****    0.0000
   1288 C          -6.7252   -1.4295   79.8129 C.ar      1     ****    0.0000
   1289 C          -5.5624   -4.0413   79.8129 C.ar      1     ****    0.0000
   1290 C          -4.6006   -5.1095   79.8129 C.ar      1     ****    0.0000
   1291 C          -2.1246   -6.5390   79.8129 C.ar      1     ****    0.0000
   1292 C          -0.7187   -6.8378   79.8129 C.ar      1     ****    0.0000
   1293 C           2.1246   -6.5390   79.8129 C.ar      1     ****    0.0000
   1294 C           3.4377   -5.9544   79.8129 C.ar      1     ****    0.0000
   1295 C           5.5624   -4.0413   79.8129 C.ar      1     ****    0.0000
   1296 C           6.2811   -2.7965   79.8129 C.ar      1     ****    0.0000
   1297 C           6.8755    0.0000   79.8129 C.ar      1     ****    0.0000
   1298 C           6.7252    1.4295   79.8129 C.ar      1     ****    0.0000
   1299 C           5.5624    4.0413   79.8129 C.ar      1     ****    0.0000
   1300 C           4.6006    5.1095   79.8129 C.ar      1     ****    0.0000
   1301 C          -0.0000    6.8755   81.0600 C.ar      1     ****    0.0000
   1302 C          -1.4295    6.7252   81.0600 C.ar      1     ****    0.0000
   1303 C          -4.0413    5.5624   81.0600 C.ar      1     ****    0.0000
   1304 C          -5.1095    4.6006   81.0600 C.ar      1     ****    0.0000
   1305 C          -6.5390    2.1246   81.0600 C.ar      1     ****    0.0000
   1306 C          -6.8378    0.7187   81.0600 C.ar      1     ****    0.0000
   1307 C          -6.5390   -2.1246   81.0600 C.ar      1     ****    0.0000
   1308 C          -5.9544   -3.4377   81.0600 C.ar      1     ****    0.0000
   1309 C          -4.0413   -5.5624   81.0600 C.ar      1     ****    0.0000
   1310 C          -2.7965   -6.2811   81.0600 C.ar      1     ****    0.0000
   1311 C           0.0000   -6.8755   81.0600 C.ar      1     ****    0.0000
   1312 C           1.4295   -6.7252   81.0600 C.ar      1     ****    0.0000
   1313 C           4.0413   -5.5624   81.0600 C.ar      1     ****    0.0000
   1314 C           5.1095   -4.6006   81.0600 C.ar      1     ****    0.0000
   1315 C           6.5390   -2.1246   81.0600 C.ar      1     ****    0.0000
   1316 C           6.8378   -0.7187   81.0600 C.ar      1     ****    0.0000
   1317 C           6.5390    2.1246   81.0600 C.ar      1     ****    0.0000
   1318 C           5.9544    3.4377   81.0600 C.ar      1     ****    0.0000
   1319 C           4.0413    5.5624   81.0600 C.ar      1     ****    0.0000
   1320 C           2.7965    6.2811   81.0600 C.ar      1     ****    0.0000
   1321 C          -2.1246    6.5390   82.3071 C.ar      1     ****    0.0000
   1322 C          -3.4377    5.9544   82.3071 C.ar      1     ****    0.0000
   1323 C          -5.5624    4.0413   82.3071 C.ar      1     ****    0.0000
   1324 C          -6.2811    2.7965   82.3071 C.ar      1     ****    0.0000
   1325 C          -6.8755   -0.0000   82.3071 C.ar      1     ****    0.0000
   1326 C          -6.7252   -1.4295   82.3071 C.ar      1     ****    0.0000
   1327 C          -5.5624   -4.0413   82.3071 C.ar      1     ****    0.0000
   1328 C          -4.6006   -5.1095   82.3071 C.ar      1     ****    0.0000
   1329 C          -2.1246   -6.5390   82.3071 C.ar      1     ****    0.0000
   1330 C          -0.7187   -6.8378   82.3071 C.ar      1     ****    0.0000
   1331 C           2.1246   -6.5390   82.3071 C.ar      1     ****    0.0000
   1332 C           3.4377   -5.9544   82.3071 C.ar      1     ****    0.0000
   1333 C           5.5624   -4.0413   82.3071 C.ar      1     ****    0.0000
   1334 C           6.2811   -2.7965   82.3071 C.ar      1     ****    0.0000
   1335 C           6.8755    0.0000   82.3071 C.ar      1     ****    0.0000
   1336 C           6.7252    1.4295   82.3071 C.ar      1     ****    0.0000
   1337 C           5.5624    4.0413   82.3071 C.ar      1     ****    0.0000
   1338 C           4.6006    5.1095   82.3071 C.ar      1     ****    0.0000
   1339 C           2.1246    6.5390   82.3071 C.ar      1     ****    0.0000
   1340 C           0.7187    6.8378   82.3071 C.ar      1     ****    0.0000
   1341 C          -4.0413    5.5624   83.5541 C.ar      1     ****    0.0000
   1342 C          -5.1095    4.6006   83.5541 C.ar      1     ****    0.0000
   1343 C          -6.5390    2.1246   83.5541 C.ar      1     ****    0.0000
   1344 C          -6.8378    0.7187   83.5541 C.ar      1     ****    0.0000
   1345 C          -6.5390   -2.1246   83.5541 C.ar      1     ****    0.0000
   1346 C          -5.9544   -3.4377   83.5541 C.ar      1     ****    0.0000
   1347 C          -4.0413   -5.5624   83.5541 C.ar      1     ****    0.0000
   1348 C          -2.7965   -6.2811   83.5541 C.ar      1     ****    0.0000
   1349 C           0.0000   -6.8755   83.5541 C.ar      1     ****    0.0000
   1350 C           1.4295   -6.7252   83.5541 C.ar      1     ****    0.0000
   1351 C           4.0413   -5.5624   83.5541 C.ar      1     ****    0.0000
   1352 C           5.1095   -4.6006   83.5541 C.ar      1     ****    0.0000
   1353 C           6.5390   -2.1246   83.5541 C.ar      1     ****    0.0000
   1354 C           6.8378   -0.7187   83.5541 C.ar      1     ****    0.0000
   1355 C           6.5390    2.1246   83.5541 C.ar      1     ****    0.0000
   1356 C           5.9544    3.4377   83.5541 C.ar      1     ****    0.0000
   1357 C           4.0413    5.5624   83.5541 C.ar      1     ****    0.0000
   1358 C           2.7965    6.2811   83.5541 C.ar      1     ****    0.0000
   1359 C          -0.0000    6.8755   83.5541 C.ar      1     ****    0.0000
   1360 C          -1.4295    6.7252   83.5541 C.ar      1     ****    0.0000
   1361 C          -5.5624    4.0413   84.8012 C.ar      1     ****    0.0000
   1362 C          -6.2811    2.7965   84.8012 C.ar      1     ****    0.0000
   1363 C          -6.8755   -0.0000   84.8012 C.ar      1     ****    0.0000
   1364 C          -6.7252   -1.4295   84.8012 C.ar      1     ****    0.0000
   1365 C          -5.5624   -4.0413   84.8012 C.ar      1     ****    0.0000
   1366 C          -4.6006   -5.1095   84.8012 C.ar      1     ****    0.0000
   1367 C          -2.1246   -6.5390   84.8012 C.ar      1     ****    0.0000
   1368 C          -0.7187   -6.8378   84.8012 C.ar      1     ****    0.0000
   1369 C           2.1246   -6.5390   84.8012 C.ar      1     ****    0.0000
   1370 C           3.4377   -5.9544   84.8012 C.ar      1     ****    0.0000
   1371 C           5.5624   -4.0413   84.8012 C.ar      1     ****    0.0000
   1372 C           6.2811   -2.7965   84.8012 C.ar      1     ****    0.0000
   1373 C           6.8755    0.0000   84.8012 C.ar      1     ****    0.0000
   1374 C           6.7252    1.4295   84.8012 C.ar      1     ****    0.0000
   1375 C           5.5624    4.0413   84.8012 C.ar      1     ****    0.0000
   1376 C           4.6006    5.1095   84.8012 C.ar      1     ****    0.0000
   1377 C           2.1246    6.5390   84.8012 C.ar      1     ****    0.0000
   1378 C           0.7187    6.8378   84.8012 C.ar      1     ****    0.0000
   1379 C          -2.1246    6.5390   84.8012 C.ar      1     ****    0.0000
   1380 C          -3.4377    5.9544   84.8012 C.ar      1     ****    0.0000
   1381 C          -6.5390    2.1246   86.0483 C.ar      1     ****    0.0000
   1382 C          -6.8378    0.7187   86.0483 C.ar      1     ****    0.0000
   1383 C          -6.5390   -2.1246   86.0483 C.ar      1     ****    0.0000
   1384 C          -5.9544   -3.4377   86.0483 C.ar      1     ****    0.0000
   1385 C          -4.0413   -5.5624   86.0483 C.ar      1     ****    0.0000
   1386 C          -2.7965   -6.2811   86.0483 C.ar      1     ****    0.0000
   1387 C           0.0000   -6.8755   86.0483 C.ar      1     ****    0.0000
   1388 C           1.4295   -6.7252   86.0483 C.ar      1     ****    0.0000
   1389 C           4.0413   -5.5624   86.0483 C.ar      1     ****    0.0000
   1390 C           5.1095   -4.6006   86.0483 C.ar      1     ****    0.0000
   1391 C           6.5390   -2.1246   86.0483 C.ar      1     ****    0.0000
   1392 C           6.8378   -0.7187   86.0483 C.ar      1     ****    0.0000
   1393 C           6.5390    2.1246   86.0483 C.ar      1     ****    0.0000
   1394 C           5.9544    3.4377   86.0483 C.ar      1     ****    0.0000
   1395 C           4.0413    5.5624   86.0483 C.ar      1     ****    0.0000
   1396 C           2.7965    6.2811   86.0483 C.ar      1     ****    0.0000
   1397 C          -0.0000    6.8755   86.0483 C.ar      1     ****    0.0000
   1398 C          -1.4295    6.7252   86.0483 C.ar      1     ****    0.0000
   1399 C          -4.0413    5.5624   86.0483 C.ar      1     ****    0.0000
   1400 C          -5.1095    4.6006   86.0483 C.ar      1     ****    0.0000
   1401 C          -6.8755   -0.0000   87.2954 C.ar      1     ****    0.0000
   1402 C          -6.7252   -1.4295   87.2954 C.ar      1     ****    0.0000
   1403 C          -5.5624   -4.0413   87.2954 C.ar      1     ****    0.0000
   1404 C          -4.6006   -5.1095   87.2954 C.ar      1     ****    0.0000
   1405 C          -2.1246   -6.5390   87.2954 C.ar      1     ****    0.0000
   1406 C          -0.7187   -6.8378   87.2954 C.ar      1     ****    0.0000
   1407 C           2.1246   -6.5390   87.2954 C.ar      1     ****    0.0000
   1408 C           3.4377   -5.9544   87.2954 C.ar      1     ****    0.0000
   1409 C           5.5624   -4.0413   87.2954 C.ar      1     ****    0.0000
   1410 C           6.2811   -2.7965   87.2954 C.ar      1     ****    0.0000
   1411 C           6.8755    0.0000   87.2954 C.ar      1     ****    0.0000
   1412 C           6.7252    1.4295   87.2954 C.ar      1     ****    0.0000
   1413 C           5.5624    4.0413   87.2954 C.ar      1     ****    0.0000
   1414 C           4.6006    5.1095   87.2954 C.ar      1     ****    0.0000
   1415 C           2.1246    6.5390   87.2954 C.ar      1     ****    0.0000
   1416 C           0.7187    6.8378   87.2954 C.ar      1     ****    0.0000
   1417 C          -2.1246    6.5390   87.2954 C.ar      1     ****    0.0000
   1418 C          -3.4377    5.9544   87.2954 C.ar      1     ****    0.0000
   1419 C          -5.5624    4.0413   87.2954 C.ar      1     ****    0.0000
   1420 C          -6.2811    2.7965   87.2954 C.ar      1     ****    0.0000
   1421 C          -6.5390   -2.1246   88.5424 C.ar      1     ****    0.0000
   1422 C          -5.9544   -3.4377   88.5424 C.ar      1     ****    0.0000
   1423 C          -4.0413   -5.5624   88.5424 C.ar      1     ****    0.0000
   1424 C          -2.7965   -6.2811   88.5424 C.ar      1     ****    0.0000
   1425 C           0.0000   -6.8755   88.5424 C.ar      1     ****    0.0000
   1426 C           1.4295   -6.7252   88.5424 C.ar      1     ****    0.0000
   1427 C           4.0413   -5.5624   88.5424 C.ar      1     ****    0.0000
   1428 C           5.1095   -4.6006   88.5424 C.ar      1     ****    0.0000
   1429 C           6.5390   -2.1246   88.5424 C.ar      1     ****    0.0000
   1430 C           6.8378   -0.7187   88.5424 C.ar      1     ****    0.0000
   1431 C           6.5390    2.1246   88.5424 C.ar      1     ****    0.0000
   1432 C           5.9544    3.4377   88.5424 C.ar      1     ****    0.0000
   1433 C           4.0413    5.5624   88.5424 C.ar      1     ****    0.0000
   1434 C           2.7965    6.2811   88.5424 C.ar      1     ****    0.0000
   1435 C          -0.0000    6.8755   88.5424 C.ar      1     ****    0.0000
   1436 C          -1.4295    6.7252   88.5424 C.ar      1     ****    0.0000
   1437 C          -4.0413    5.5624   88.5424 C.ar      1     ****    0.0000
   1438 C          -5.1095    4.6006   88.5424 C.ar      1     ****    0.0000
   1439 C          -6.5390    2.1246   88.5424 C.ar      1     ****    0.0000
   1440 C          -6.8378    0.7187   88.5424 C.ar      1     ****    0.0000
   1441 C          -5.5624   -4.0413   89.7895 C.ar      1     ****    0.0000
   1442 C          -4.6006   -5.1095   89.7895 C.ar      1     ****    0.0000
   1443 C          -2.1246   -6.5390   89.7895 C.ar      1     ****    0.0000
   1444 C          -0.7187   -6.8378   89.7895 C.ar      1     ****    0.0000
   1445 C           2.1246   -6.5390   89.7895 C.ar      1     ****    0.0000
   1446 C           3.4377   -5.9544   89.7895 C.ar      1     ****    0.0000
   1447 C           5.5624   -4.0413   89.7895 C.ar      1     ****    0.0000
   1448 C           6.2811   -2.7965   89.7895 C.ar      1     ****    0.0000
   1449 C           6.8755    0.0000   89.7895 C.ar      1     ****    0.0000
   1450 C           6.7252    1.4295   89.7895 C.ar      1     ****    0.0000
   1451 C           5.5624    4.0413   89.7895 C.ar      1     ****    0.0000
   1452 C           4.6006    5.1095   89.7895 C.ar      1     ****    0.0000
   1453 C           2.1246    6.5390   89.7895 C.ar      1     ****    0.0000
   1454 C           0.7187    6.8378   89.7895 C.ar      1     ****    0.0000
   1455 C          -2.1246    6.5390   89.7895 C.ar      1     ****    0.0000
   1456 C          -3.4377    5.9544   89.7895 C.ar      1     ****    0.0000
   1457 C          -5.5624    4.0413   89.7895 C.ar      1     ****    0.0000
   1458 C          -6.2811    2.7965   89.7895 C.ar      1     ****    0.0000
   1459 C          -6.8755   -0.0000   89.7895 C.ar      1     ****    0.0000
   1460 C          -6.7252   -1.4295   89.7895 C.ar      1     ****    0.0000
   1461 C          -4.0413   -5.5624   91.0366 C.ar      1     ****    0.0000
   1462 C          -2.7965   -6.2811   91.0366 C.ar      1     ****    0.0000
   1463 C           0.0000   -6.8755   91.0366 C.ar      1     ****    0.0000
   1464 C           1.4295   -6.7252   91.0366 C.ar      1     ****    0.0000
   1465 C           4.0413   -5.5624   91.0366 C.ar      1     ****    0.0000
   1466 C           5.1095   -4.6006   91.0366 C.ar      1     ****    0.0000
   1467 C           6.5390   -2.1246   91.0366 C.ar      1     ****    0.0000
   1468 C           6.8378   -0.7187   91.0366 C.ar      1     ****    0.0000
   1469 C           6.5390    2.1246   91.0366 C.ar      1     ****    0.0000
   1470 C           5.9544    3.4377   91.0366 C.ar      1     ****    0.0000
   1471 C           4.0413    5.5624   91.0366 C.ar      1     ****    0.0000
   1472 C           2.7965    6.2811   91.0366 C.ar      1     ****    0.0000
   1473 C          -0.0000    6.8755   91.0366 C.ar      1     ****    0.0000
   1474 C          -1.4295    6.7252   91.0366 C.ar      1     ****    0.0000
   1475 C          -4.0413    5.5624   91.0366 C.ar      1     ****    0.0000
   1476 C          -5.1095    4.6006   91.0366 C.ar      1     ****    0.0000
   1477 C          -6.5390    2.1246   91.0366 C.ar      1     ****    0.0000
   1478 C          -6.8378    0.7187   91.0366 C.ar      1     ****    0.0000
   1479 C          -6.5390   -2.1246   91.0366 C.ar      1     ****    0.0000
   1480 C          -5.9544   -3.4377   91.0366 C.ar      1     ****    0.0000
   1481 C          -2.1246   -6.5390   92.2837 C.ar      1     ****    0.0000
   1482 C          -0.7187   -6.8378   92.2837 C.ar      1     ****    0.0000
   1483 C           2.1246   -6.5390   92.2837 C.ar      1     ****    0.0000
   1484 C           3.4377   -5.9544   92.2837 C.ar      1     ****    0.0000
   1485 C           5.5624   -4.0413   92.2837 C.ar      1     ****    0.0000
   1486 C           6.2811   -2.7965   92.2837 C.ar      1     ****    0.0000
   1487 C           6.8755    0.0000   92.2837 C.ar      1     ****    0.0000
   1488 C           6.7252    1.4295   92.2837 C.ar      1     ****    0.0000
   1489 C           5.5624    4.0413   92.2837 C.ar      1     ****    0.0000
   1490 C           4.6006    5.1095   92.2837 C.ar      1     ****    0.0000
   1491 C           2.1246    6.5390   92.2837 C.ar      1     ****    0.0000
   1492 C           0.7187    6.8378   92.2837 C.ar      1     ****    0.0000
   1493 C          -2.1246    6.5390   92.2837 C.ar      1     ****    0.0000
   1494 C          -3.4377    5.9544   92.2837 C.ar      1     ****    0.0000
   1495 C          -5.5624    4.0413   92.2837 C.ar      1     ****    0.0000
   1496 C          -6.2811    2.7965   92.2837 C.ar      1     ****    0.0000
   1497 C          -6.8755   -0.0000   92.2837 C.ar      1     ****    0.0000
   1498 C          -6.7252   -1.4295   92.2837 C.ar      1     ****    0.0000
   1499 C          -5.5624   -4.0413   92.2837 C.ar      1     ****    0.0000
   1500 C          -4.6006   -5.1095   92.2837 C.ar      1     ****    0.0000
   1501 C           0.0000   -6.8755   93.5307 C.ar      1     ****    0.0000
   1502 C           1.4295   -6.7252   93.5307 C.ar      1     ****    0.0000
   1503 C           4.0413   -5.5624   93.5307 C.ar      1     ****    0.0000
   1504 C           5.1095   -4.6006   93.5307 C.ar      1     ****    0.0000
   1505 C           6.5390   -2.1246   93.5307 C.ar      1     ****    0.0000
   1506 C           6.8378   -0.7187   93.5307 C.ar      1     ****    0.0000
   1507 C           6.5390    2.1246   93.5307 C.ar      1     ****    0.0000
   1508 C           5.9544    3.4377   93.5307 C.ar      1     ****    0.0000
   1509 C           4.0413    5.5624   93.5307 C.ar      1     ****    0.0000
   1510 C           2.7965    6.2811   93.5307 C.ar      1     ****    0.0000
   1511 C          -0.0000    6.8755   93.5307 C.ar      1     ****    0.0000
   1512 C          -1.4295    6.7252   93.5307 C.ar      1     ****    0.0000
   1513 C          -4.0413    5.5624   93.5307 C.ar      1     ****    0.0000
   1514 C          -5.1095    4.6006   93.5307 C.ar      1     ****    0.0000
   1515 C          -6.5390    2.1246   93.5307 C.ar      1     ****    0.0000
   1516 C          -6.8378    0.7187   93.5307 C.ar      1     ****    0.0000
   1517 C          -6.5390   -2.1246   93.5307 C.ar      1     ****    0.0000
   1518 C          -5.9544   -3.4377   93.5307 C.ar      1     ****    0.0000
   1519 C          -4.0413   -5.5624   93.5307 C.ar      1     ****    0.0000
   1520 C          -2.7965   -6.2811   93.5307 C.ar      1     ****    0.0000
   1521 C           2.1246   -6.5390   94.7778 C.ar      1     ****    0.0000
   1522 C           3.4377   -5.9544   94.7778 C.ar      1     ****    0.0000
   1523 C           5.5624   -4.0413   94.7778 C.ar      1     ****    0.0000
   1524 C           6.2811   -2.7965   94.7778 C.ar      1     ****    0.0000
   1525 C           6.8755    0.0000   94.7778 C.ar      1     ****    0.0000
   1526 C           6.7252    1.4295   94.7778 C.ar      1     ****    0.0000
   1527 C           5.5624    4.0413   94.7778 C.ar      1     ****    0.0000
   1528 C           4.6006    5.1095   94.7778 C.ar      1     ****    0.0000
   1529 C           2.1246    6.5390   94.7778 C.ar      1     ****    0.0000
   1530 C           0.7187    6.8378   94.7778 C.ar      1     ****    0.0000
   1531 C          -2.1246    6.5390   94.7778 C.ar      1     ****    0.0000
   1532 C          -3.4377    5.9544   94.7778 C.ar      1     ****    0.0000
   1533 C          -5.5624    4.0413   94.7778 C.ar      1     ****    0.0000
   1534 C          -6.2811    2.7965   94.7778 C.ar      1     ****    0.0000
   1535 C          -6.8755   -0.0000   94.7778 C.ar      1     ****    0.0000
   1536 C          -6.7252   -1.4295   94.7778 C.ar      1     ****    0.0000
   1537 C          -5.5624   -4.0413   94.7778 C.ar      1     ****    0.0000
   1538 C          -4.6006   -5.1095   94.7778 C.ar      1     ****    0.0000
   1539 C          -2.1246   -6.5390   94.7778 C.ar      1     ****    0.0000
   1540 C          -0.7187   -6.8378   94.7778 C.ar      1     ****    0.0000
   1541 C           4.0413   -5.5624   96.0249 C.ar      1     ****    0.0000
   1542 C           5.1095   -4.6006   96.0249 C.ar      1     ****    0.0000
   1543 C           6.5390   -2.1246   96.0249 C.ar      1     ****    0.0000
   1544 C           6.8378   -0.7187   96.0249 C.ar      1     ****    0.0000
   1545 C           6.5390    2.1246   96.0249 C.ar      1     ****    0.0000
   1546 C           5.9544    3.4377   96.0249 C.ar      1     ****    0.0000
   1547 C           4.0413    5.5624   96.0249 C.ar      1     ****    0.0000
   1548 C           2.7965    6.2811   96.0249 C.ar      1     ****    0.0000
   1549 C          -0.0000    6.8755   96.0249 C.ar      1     ****    0.0000
   1550 C          -1.4295    6.7252   96.0249 C.ar      1     ****    0.0000
   1551 C          -4.0413    5.5624   96.0249 C.ar      1     ****    0.0000
   1552 C          -5.1095    4.6006   96.0249 C.ar      1     ****    0.0000
   1553 C          -6.5390    2.1246   96.0249 C.ar      1     ****    0.0000
   1554 C          -6.8378    0.7187   96.0249 C.ar      1     ****    0.0000
   1555 C          -6.5390   -2.1246   96.0249 C.ar      1     ****    0.0000
   1556 C          -5.9544   -3.4377   96.0249 C.ar      1     ****    0.0000
   1557 C          -4.0413   -5.5624   96.0249 C.ar      1     ****    0.0000
   1558 C          -2.7965   -6.2811   96.0249 C.ar      1     ****    0.0000
   1559 C           0.0000   -6.8755   96.0249 C.ar      1     ****    0.0000
   1560 C           1.4295   -6.7252   96.0249 C.ar      1     ****    0.0000
   1561 C           5.5624   -4.0413   97.2720 C.ar      1     ****    0.0000
   1562 C           6.2811   -2.7965   97.2720 C.ar      1     ****    0.0000
   1563 C           6.8755    0.0000   97.2720 C.ar      1     ****    0.0000
   1564 C           6.7252    1.4295   97.2720 C.ar      1     ****    0.0000
   1565 C           5.5624    4.0413   97.2720 C.ar      1     ****    0.0000
   1566 C           4.6006    5.1095   97.2720 C.ar      1     ****    0.0000
   1567 C           2.1246    6.5390   97.2720 C.ar      1     ****    0.0000
   1568 C           0.7187    6.8378   97.2720 C.ar      1     ****    0.0000
   1569 C          -2.1246    6.5390   97.2720 C.ar      1     ****    0.0000
   1570 C          -3.4377    5.9544   97.2720 C.ar      1     ****    0.0000
   1571 C          -5.5624    4.0413   97.2720 C.ar      1     ****    0.0000
   1572 C          -6.2811    2.7965   97.2720 C.ar      1     ****    0.0000
   1573 C          -6.8755   -0.0000   97.2720 C.ar      1     ****    0.0000
   1574 C          -6.7252   -1.4295   97.2720 C.ar      1     ****    0.0000
   1575 C          -5.5624   -4.0413   97.2720 C.ar      1     ****    0.0000
   1576 C          -4.6006   -5.1095   97.2720 C.ar      1     ****    0.0000
   1577 C          -2.1246   -6.5390   97.2720 C.ar      1     ****    0.0000
   1578 C          -0.7187   -6.8378   97.2720 C.ar      1     ****    0.0000
   1579 C           2.1246   -6.5390   97.2720 C.ar      1     ****    0.0000
   1580 C           3.4377   -5.9544   97.2720 C.ar      1     ****    0.0000
   1581 C           6.5390   -2.1246   98.5190 C.ar      1     ****    0.0000
   1582 C           6.8378   -0.7187   98.5190 C.ar      1     ****    0.0000
   1583 C           6.5390    2.1246   98.5190 C.ar      1     ****    0.0000
   1584 C           5.9544    3.4377   98.5190 C.ar      1     ****    0.0000
   1585 C           4.0413    5.5624   98.5190 C.ar      1     ****    0.0000
   1586 C           2.7965    6.2811   98.5190 C.ar      1     ****    0.0000
   1587 C          -0.0000    6.8755   98.5190 C.ar      1     ****    0.0000
   1588 C          -1.4295    6.7252   98.5190 C.ar      1     ****    0.0000
   1589 C          -4.0413    5.5624   98.5190 C.ar      1     ****    0.0000
   1590 C          -5.1095    4.6006   98.5190 C.ar      1     ****    0.0000
   1591 C          -6.5390    2.1246   98.5190 C.ar      1     ****    0.0000
   1592 C          -6.8378    0.7187   98.5190 C.ar      1     ****    0.0000
   1593 C          -6.5390   -2.1246   98.5190 C.ar      1     ****    0.0000
   1594 C          -5.9544   -3.4377   98.5190 C.ar      1     ****    0.0000
   1595 C          -4.0413   -5.5624   98.5190 C.ar      1     ****    0.0000
   1596 C          -2.7965   -6.2811   98.5190 C.ar      1     ****    0.0000
   1597 C           0.0000   -6.8755   98.5190 C.ar      1     ****    0.0000
   1598 C           1.4295   -6.7252   98.5190 C.ar      1     ****    0.0000
   1599 C           4.0413   -5.5624   98.5190 C.ar      1     ****    0.0000
   1600 C           5.1095   -4.6006   98.5190 C.ar      1     ****    0.0000
   1601 C           6.8755    0.0000   99.7661 C.ar      1     ****    0.0000
   1602 C           6.7252    1.4295   99.7661 C.ar      1     ****    0.0000
   1603 C           5.5624    4.0413   99.7661 C.ar      1     ****    0.0000
   1604 C           4.6006    5.1095   99.7661 C.ar      1     ****    0.0000
   1605 C           2.1246    6.5390   99.7661 C.ar      1     ****    0.0000
   1606 C           0.7187    6.8378   99.7661 C.ar      1     ****    0.0000
   1607 C          -2.1246    6.5390   99.7661 C.ar      1     ****    0.0000
   1608 C          -3.4377    5.9544   99.7661 C.ar      1     ****    0.0000
   1609 C          -5.5624    4.0413   99.7661 C.ar      1     ****    0.0000
   1610 C          -6.2811    2.7965   99.7661 C.ar      1     ****    0.0000
   1611 C          -6.8755   -0.0000   99.7661 C.ar      1     ****    0.0000
   1612 C          -6.7252   -1.4295   99.7661 C.ar      1     ****    0.0000
   1613 C          -5.5624   -4.0413   99.7661 C.ar      1     ****    0.0000
   1614 C          -4.6006   -5.1095   99.7661 C.ar      1     ****    0.0000
   1615 C          -2.1246   -6.5390   99.7661 C.ar      1     ****    0.0000
   1616 C          -0.7187   -6.8378   99.7661 C.ar      1     ****    0.0000
   1617 C           2.1246   -6.5390   99.7661 C.ar      1     ****    0.0000
   1618 C           3.4377   -5.9544   99.7661 C.ar      1     ****    0.0000
   1619 C           5.5624   -4.0413   99.7661 C.ar      1     ****    0.0000
   1620 C           6.2811   -2.7965   99.7661 C.ar      1     ****    0.0000
   1621 C           6.5390    2.1246  101.0132 C.ar      1     ****    0.0000
   1622 C           5.9544    3.4377  101.0132 C.ar      1     ****    0.0000
   1623 C           4.0413    5.5624  101.0132 C.ar      1     ****    0.0000
   1624 C           2.7965    6.2811  101.0132 C.ar      1     ****    0.0000
   1625 C          -0.0000    6.8755  101.0132 C.ar      1     ****    0.0000
   1626 C          -1.4295    6.7252  101.0132 C.ar      1     ****    0.0000
   1627 C          -4.0413    5.5624  101.0132 C.ar      1     ****    0.0000
   1628 C          -5.1095    4.6006  101.0132 C.ar      1     ****    0.0000
   1629 C          -6.5390    2.1246  101.0132 C.ar      1     ****    0.0000
   1630 C          -6.8378    0.7187  101.0132 C.ar      1     ****    0.0000
   1631 C          -6.5390   -2.1246  101.0132 C.ar      1     ****    0.0000
   1632 C          -5.9544   -3.4377  101.0132 C.ar      1     ****    0.0000
   1633 C          -4.0413   -5.5624  101.0132 C.ar      1     ****    0.0000
   1634 C          -2.7965   -6.2811  101.0132 C.ar      1     ****    0.0000
   1635 C           0.0000   -6.8755  101.0132 C.ar      1     ****    0.0000
   1636 C           1.4295   -6.7252  101.0132 C.ar      1     ****    0.0000
   1637 C           4.0413   -5.5624  101.0132 C.ar      1     ****    0.0000
   1638 C           5.1095   -4.6006  101.0132 C.ar      1     ****    0.0000
   1639 C           6.5390   -2.1246  101.0132 C.ar      1     ****    0.0000
   1640 C           6.8378   -0.7187  101.0132 C.ar      1     ****    0.0000
   1641 C           5.5624    4.0413  102.2603 C.ar      1     ****    0.0000
   1642 C           4.6006    5.1095  102.2603 C.ar      1     ****    0.0000
   1643 C           2.1246    6.5390  102.2603 C.ar      1     ****    0.0000
   1644 C           0.7187    6.8378  102.2603 C.ar      1     ****    0.0000
   1645 C          -2.1246    6.5390  102.2603 C.ar      1     ****    0.0000
   1646 C          -3.4377    5.9544  102.2603 C.ar      1     ****    0.0000
   1647 C          -5.5624    4.0413  102.2603 C.ar      1     ****    0.0000
   1648 C          -6.2811    2.7965  102.2603 C.ar      1     ****    0.0000
   1649 C          -6.8755   -0.0000  102.2603 C.ar      1     ****    0.0000
   1650 C          -6.7252   -1.4295  102.2603 C.ar      1     ****    0.0000
   1651 C          -5.5624   -4.0413  102.2603 C.ar      1     ****    0.0000
   1652 C          -4.6006   -5.1095  102.2603 C.ar      1     ****    0.0000
   1653 C          -2.1246   -6.5390  102.2603 C.ar      1     ****    0.0000
   1654 C          -0.7187   -6.8378  102.2603 C.ar      1     ****    0.0000
   1655 C           2.1246   -6.5390  102.2603 C.ar      1     ****    0.0000
   1656 C           3.4377   -5.9544  102.2603 C.ar      1     ****    0.0000
   1657 C           5.5624   -4.0413  102.2603 C.ar      1     ****    0.0000
   1658 C           6.2811   -2.7965  102.2603 C.ar      1     ****    0.0000
   1659 C           6.8755    0.0000  102.2603 C.ar      1     ****    0.0000
   1660 C           6.7252    1.4295  102.2603 C.ar      1     ****    0.0000
   1661 C           4.0413    5.5624  103.5074 C.ar      1     ****   -1.0000
   1662 C           2.7965    6.2811  103.5074 C.ar      1     ****   -1.0000
   1663 C          -0.0000    6.8755  103.5074 C.ar      1     ****   -1.0000
   1664 C          -1.4295    6.7252  103.5074 C.ar      1     ****   -1.0000
   1665 C          -4.0413    5.5624  103.5074 C.ar      1     ****   -1.0000
   1666 C          -5.1095    4.6006  103.5074 C.ar      1     ****   -1.0000
   1667 C          -6.5390    2.1246  103.5074 C.ar      1     ****   -1.0000
   1668 C          -6.8378    0.7187  103.5074 C.ar      1     ****   -1.0000
   1669 C          -6.5390   -2.1246  103.5074 C.ar      1     ****   -1.0000
   1670 C          -5.9544   -3.4377  103.5074 C.ar      1     ****   -1.0000
   1671 C          -4.0413   -5.5624  103.5074 C.ar      1     ****   -1.0000
   1672 C          -2.7965   -6.2811  103.5074 C.ar      1     ****   -1.0000
   1673 C           0.0000   -6.8755  103.5074 C.ar      1     ****   -1.0000
   1674 C           1.4295   -6.7252  103.5074 C.ar      1     ****   -1.0000
   1675 C           4.0413   -5.5624  103.5074 C.ar      1     ****   -1.0000
   1676 C           5.1095   -4.6006  103.5074 C.ar      1     ****   -1.0000
   1677 C           6.5390   -2.1246  103.5074 C.ar      1     ****   -1.0000
   1678 C           6.8378   -0.7187  103.5074 C.ar      1     ****   -1.0000
   1679 C           6.5390    2.1246  103.5074 C.ar      1     ****   -1.0000
   1680 C           5.9544    3.4377  103.5074 C.ar      1     ****   -1.0000
   1681 H           7.0309   -0.5513   -0.9648 H         1     ****    0.0000
   1682 H           6.7431    1.9990   -0.9665 H         1     ****    0.0000
   1683 H           6.0121    3.6866   -0.9648 H         1     ****    0.0000
   1684 H           4.2804    5.5809   -0.9665 H         1     ****    0.0000
   1685 H           2.6969    6.5164   -0.9648 H         1     ****    0.0000
   1686 H           0.1826    7.0309   -0.9665 H         1     ****    0.0000
   1687 H          -1.6483    6.8571   -0.9648 H         1     ****    0.0000
   1688 H          -3.9849    5.7956   -0.9665 H         1     ****    0.0000
   1689 H          -5.3640    4.5786   -0.9648 H         1     ****    0.0000
   1690 H          -6.6305    2.3464   -0.9665 H         1     ****    0.0000
   1691 H          -7.0309    0.5513   -0.9648 H         1     ****    0.0000
   1692 H          -6.7431   -1.9990   -0.9665 H         1     ****    0.0000
   1693 H          -6.0121   -3.6866   -0.9648 H         1     ****    0.0000
   1694 H          -4.2804   -5.5809   -0.9665 H         1     ****    0.0000
   1695 H          -2.6969   -6.5164   -0.9648 H         1     ****    0.0000
   1696 H          -0.1826   -7.0309   -0.9665 H         1     ****    0.0000
   1697 H           1.6483   -6.8571   -0.9648 H         1     ****    0.0000
   1698 H           3.9849   -5.7956   -0.9665 H         1     ****    0.0000
   1699 H           5.3640   -4.5786   -0.9648 H         1     ****    0.0000
   1700 H           6.6305   -2.3464   -0.9665 H         1     ****    0.0000
   1701 H           4.5786    5.3640  104.4722 H         1     ****    0.0000
   1702 H           2.3464    6.6305  104.4739 H         1     ****    0.0000
   1703 H           0.5513    7.0309  104.4722 H         1     ****    0.0000
   1704 H          -1.9990    6.7431  104.4739 H         1     ****    0.0000
   1705 H          -3.6866    6.0121  104.4722 H         1     ****    0.0000
   1706 H          -5.5809    4.2804  104.4739 H         1     ****    0.0000
   1707 H          -6.5164    2.6969  104.4722 H         1     ****    0.0000
   1708 H          -7.0309    0.1826  104.4739 H         1     ****    0.0000
   1709 H          -6.8571   -1.6483  104.4722 H         1     ****    0.0000
   1710 H          -5.7956   -3.9849  104.4739 H         1     ****    0.0000
   1711 H          -4.5786   -5.3640  104.4722 H         1     ****    0.0000
   1712 H          -2.3464   -6.6305  104.4739 H         1     ****    0.0000
   1713 H          -0.5513   -7.0309  104.4722 H         1     ****    0.0000
   1714 H           1.9990   -6.7431  104.4739 H         1     ****    0.0000
   1715 H           3.6866   -6.0121  104.4722 H         1     ****    0.0000
   1716 H           5.5809   -4.2804  104.4739 H         1     ****    0.0000
   1717 H           6.5164   -2.6969  104.4722 H         1     ****    0.0000
   1718 H           7.0309   -0.1826  104.4739 H         1     ****    0.0000
   1719 H           6.8571    1.6483  104.4722 H         1     ****    0.0000
   1720 H           5.7956    3.9849  104.4739 H         1     ****    0.0000
@<TRIPOS>BOND
     1     1     2     1
     2     1    40     1
     3     1  1681     1
     4     2    21     1
     5     2  1682     1
     6     3     4     1
     7     3    22     1
     8     3  1683     1
     9     4    23     1
    10     4  1684     1
    11     5     6     1
    12     5    24     1
    13     5  1685     1
    14     6    25     1
    15     6  1686     1
    16     7     8     1
    17     7    26     1
    18     7  1687     1
    19     8    27     1
    20     8  1688     1
    21     9    10     1
    22     9    28     1
    23     9  1689     1
    24    10    29     1
    25    10  1690     1
    26    11    12     1
    27    11    30     1
    28    11  1691     1
    29    12    31     1
    30    12  1692     1
    31    13    14     1
    32    13    32     1
    33    13  1693     1
    34    14    33     1
    35    14  1694     1
    36    15    16     1
    37    15    34     1
    38    15  1695     1
    39    16    35     1
    40    16  1696     1
    41    17    18     1
    42    17    36     1
    43    17  1697     1
    44    18    37     1
    45    18  1698     1
    46    19    20     1
    47    19    38     1
    48    19  1699     1
    49    20    39     1
    50    20  1700     1
    51    21    22     2
    52    21    60     1
    53    22    41     1
    54    23    24     2
    55    23    42     1
    56    24    43     1
    57    25    26     2
    58    25    44     1
    59    26    45     1
    60    27    28     2
    61    27    46     1
    62    28    47     1
    63    29    30     2
    64    29    48     1
    65    30    49     1
    66    31    32     2
    67    31    50     1
    68    32    51     1
    69    33    34     2
    70    33    52     1
    71    34    53     1
    72    35    36     2
    73    35    54     1
    74    36    55     1
    75    37    38     2
    76    37    56     1
    77    38    57     1
    78    39    40     2
    79    39    58     1
    80    40    59     1
    81    41    42     2
    82    41    80     1
    83    42    61     1
    84    43    44     2
    85    43    62     1
    86    44    63     1
    87    45    46     2
    88    45    64     1
    89    46    65     1
    90    47    48     2
    91    47    66     1
    92    48    67     1
    93    49    50     2
    94    49    68     1
    95    50    69     1
    96    51    52     2
    97    51    70     1
    98    52    71     1
    99    53    54     2
   100    53    72     1
   101    54    73     1
   102    55    56     2
   103    55    74     1
   104    56    75     1
   105    57    58     2
   106    57    76     1
   107    58    77     1
   108    59    60     2
   109    59    78     1
   110    60    79     1
   111    61    62     2
   112    61   100     1
   113    62    81     1
   114    63    64     2
   115    63    82     1
   116    64    83     1
   117    65    66     2
   118    65    84     1
   119    66    85     1
   120    67    68     2
   121    67    86     1
   122    68    87     1
   123    69    70     2
   124    69    88     1
   125    70    89     1
   126    71    72     2
   127    71    90     1
   128    72    91     1
   129    73    74     2
   130    73    92     1
   131    74    93     1
   132    75    76     2
   133    75    94     1
   134    76    95     1
   135    77    78     2
   136    77    96     1
   137    78    97     1
   138    79    80     2
   139    79    98     1
   140    80    99     1
   141    81    82     2
   142    81   120     1
   143    82   101     1
   144    83    84     2
   145    83   102     1
   146    84   103     1
   147    85    86     2
   148    85   104     1
   149    86   105     1
   150    87    88     2
   151    87   106     1
   152    88   107     1
   153    89    90     2
   154    89   108     1
   155    90   109     1
   156    91    92     2
   157    91   110     1
   158    92   111     1
   159    93    94     2
   160    93   112     1
   161    94   113     1
   162    95    96     2
   163    95   114     1
   164    96   115     1
   165    97    98     2
   166    97   116     1
   167    98   117     1
   168    99   100     2
   169    99   118     1
   170   100   119     1
   171   101   102     2
   172   101   140     1
   173   102   121     1
   174   103   104     2
   175   103   122     1
   176   104   123     1
   177   105   106     2
   178   105   124     1
   179   106   125     1
   180   107   108     2
   181   107   126     1
   182   108   127     1
   183   109   110     2
   184   109   128     1
   185   110   129     1
   186   111   112     2
   187   111   130     1
   188   112   131     1
   189   113   114     2
   190   113   132     1
   191   114   133     1
   192   115   116     2
   193   115   134     1
   194   116   135     1
   195   117   118     2
   196   117   136     1
   197   118   137     1
   198   119   120     2
   199   119   138     1
   200   120   139     1
   201   121   122     2
   202   121   160     1
   203   122   141     1
   204   123   124     2
   205   123   142     1
   206   124   143     1
   207   125   126     2
   208   125   144     1
   209   126   145     1
   210   127   128     2
   211   127   146     1
   212   128   147     1
   213   129   130     2
   214   129   148     1
   215   130   149     1
   216   131   132     2
   217   131   150     1
   218   132   151     1
   219   133   134     2
   220   133   152     1
   221   134   153     1
   222   135   136     2
   223   135   154     1
   224   136   155     1
   225   137   138     2
   226   137   156     1
   227   138   157     1
   228   139   140     2
   229   139   158     1
   230   140   159     1
   231   141   142     2
   232   141   180     1
   233   142   161     1
   234   143   144     2
   235   143   162     1
   236   144   163     1
   237   145   146     2
   238   145   164     1
   239   146   165     1
   240   147   148     2
   241   147   166     1
   242   148   167     1
   243   149   150     2
   244   149   168     1
   245   150   169     1
   246   151   152     2
   247   151   170     1
   248   152   171     1
   249   153   154     2
   250   153   172     1
   251   154   173     1
   252   155   156     2
   253   155   174     1
   254   156   175     1
   255   157   158     2
   256   157   176     1
   257   158   177     1
   258   159   160     2
   259   159   178     1
   260   160   179     1
   261   161   162     2
   262   161   200     1
   263   162   181     1
   264   163   164     2
   265   163   182     1
   266   164   183     1
   267   165   166     2
   268   165   184     1
   269   166   185     1
   270   167   168     2
   271   167   186     1
   272   168   187     1
   273   169   170     2
   274   169   188     1
   275   170   189     1
   276   171   172     2
   277   171   190     1
   278   172   191     1
   279   173   174     2
   280   173   192     1
   281   174   193     1
   282   175   176     2
   283   175   194     1
   284   176   195     1
   285   177   178     2
   286   177   196     1
   287   178   197     1
   288   179   180     2
   289   179   198     1
   290   180   199     1
   291   181   182     2
   292   181   220     1
   293   182   201     1
   294   183   184     2
   295   183   202     1
   296   184   203     1
   297   185   186     2
   298   185   204     1
   299   186   205     1
   300   187   188     2
   301   187   206     1
   302   188   207     1
   303   189   190     2
   304   189   208     1
   305   190   209     1
   306   191   192     2
   307   191   210     1
   308   192   211     1
   309   193   194     2
   310   193   212     1
   311   194   213     1
   312   195   196     2
   313   195   214     1
   314   196   215     1
   315   197   198     2
   316   197   216     1
   317   198   217     1
   318   199   200     2
   319   199   218     1
   320   200   219     1
   321   201   202     2
   322   201   240     1
   323   202   221     1
   324   203   204     2
   325   203   222     1
   326   204   223     1
   327   205   206     2
   328   205   224     1
   329   206   225     1
   330   207   208     2
   331   207   226     1
   332   208   227     1
   333   209   210     2
   334   209   228     1
   335   210   229     1
   336   211   212     2
   337   211   230     1
   338   212   231     1
   339   213   214     2
   340   213   232     1
   341   214   233     1
   342   215   216     2
   343   215   234     1
   344   216   235     1
   345   217   218     2
   346   217   236     1
   347   218   237     1
   348   219   220     2
   349   219   238     1
   350   220   239     1
   351   221   222     2
   352   221   260     1
   353   222   241     1
   354   223   224     2
   355   223   242     1
   356   224   243     1
   357   225   226     2
   358   225   244     1
   359   226   245     1
   360   227   228     2
   361   227   246     1
   362   228   247     1
   363   229   230     2
   364   229   248     1
   365   230   249     1
   366   231   232     2
   367   231   250     1
   368   232   251     1
   369   233   234     2
   370   233   252     1
   371   234   253     1
   372   235   236     2
   373   235   254     1
   374   236   255     1
   375   237   238     2
   376   237   256     1
   377   238   257     1
   378   239   240     2
   379   239   258     1
   380   240   259     1
   381   241   242     2
   382   241   280     1
   383   242   261     1
   384   243   244     2
   385   243   262     1
   386   244   263     1
   387   245   246     2
   388   245   264     1
   389   246   265     1
   390   247   248     2
   391   247   266     1
   392   248   267     1
   393   249   250     2
   394   249   268     1
   395   250   269     1
   396   251   252     2
   397   251   270     1
   398   252   271     1
   399   253   254     2
   400   253   272     1
   401   254   273     1
   402   255   256     2
   403   255   274     1
   404   256   275     1
   405   257   258     2
   406   257   276     1
   407   258   277     1
   408   259   260     2
   409   259   278     1
   410   260   279     1
   411   261   262     2
   412   261   300     1
   413   262   281     1
   414   263   264     2
   415   263   282     1
   416   264   283     1
   417   265   266     2
   418   265   284     1
   419   266   285     1
   420   267   268     2
   421   267   286     1
   422   268   287     1
   423   269   270     2
   424   269   288     1
   425   270   289     1
   426   271   272     2
   427   271   290     1
   428   272   291     1
   429   273   274     2
   430   273   292     1
   431   274   293     1
   432   275   276     2
   433   275   294     1
   434   276   295     1
   435   277   278     2
   436   277   296     1
   437   278   297     1
   438   279   280     2
   439   279   298     1
   440   280   299     1
   441   281   282     2
   442   281   320     1
   443   282   301     1
   444   283   284     2
   445   283   302     1
   446   284   303     1
   447   285   286     2
   448   285   304     1
   449   286   305     1
   450   287   288     2
   451   287   306     1
   452   288   307     1
   453   289   290     2
   454   289   308     1
   455   290   309     1
   456   291   292     2
   457   291   310     1
   458   292   311     1
   459   293   294     2
   460   293   312     1
   461   294   313     1
   462   295   296     2
   463   295   314     1
   464   296   315     1
   465   297   298     2
   466   297   316     1
   467   298   317     1
   468   299   300     2
   469   299   318     1
   470   300   319     1
   471   301   302     2
   472   301   340     1
   473   302   321     1
   474   303   304     2
   475   303   322     1
   476   304   323     1
   477   305   306     2
   478   305   324     1
   479   306   325     1
   480   307   308     2
   481   307   326     1
   482   308   327     1
   483   309   310     2
   484   309   328     1
   485   310   329     1
   486   311   312     2
   487   311   330     1
   488   312   331     1
   489   313   314     2
   490   313   332     1
   491   314   333     1
   492   315   316     2
   493   315   334     1
   494   316   335     1
   495   317   318     2
   496   317   336     1
   497   318   337     1
   498   319   320     2
   499   319   338     1
   500   320   339     1
   501   321   322     2
   502   321   360     1
   503   322   341     1
   504   323   324     2
   505   323   342     1
   506   324   343     1
   507   325   326     2
   508   325   344     1
   509   326   345     1
   510   327   328     2
   511   327   346     1
   512   328   347     1
   513   329   330     2
   514   329   348     1
   515   330   349     1
   516   331   332     2
   517   331   350     1
   518   332   351     1
   519   333   334     2
   520   333   352     1
   521   334   353     1
   522   335   336     2
   523   335   354     1
   524   336   355     1
   525   337   338     2
   526   337   356     1
   527   338   357     1
   528   339   340     2
   529   339   358     1
   530   340   359     1
   531   341   342     2
   532   341   380     1
   533   342   361     1
   534   343   344     2
   535   343   362     1
   536   344   363     1
   537   345   346     2
   538   345   364     1
   539   346   365     1
   540   347   348     2
   541   347   366     1
   542   348   367     1
   543   349   350     2
   544   349   368     1
   545   350   369     1
   546   351   352     2
   547   351   370     1
   548   352   371     1
   549   353   354     2
   550   353   372     1
   551   354   373     1
   552   355   356     2
   553   355   374     1
   554   356   375     1
   555   357   358     2
   556   357   376     1
   557   358   377     1
   558   359   360     2
   559   359   378     1
   560   360   379     1
   561   361   362     2
   562   361   400     1
   563   362   381     1
   564   363   364     2
   565   363   382     1
   566   364   383     1
   567   365   366     2
   568   365   384     1
   569   366   385     1
   570   367   368     2
   571   367   386     1
   572   368   387     1
   573   369   370     2
   574   369   388     1
   575   370   389     1
   576   371   372     2
   577   371   390     1
   578   372   391     1
   579   373   374     2
   580   373   392     1
   581   374   393     1
   582   375   376     2
   583   375   394     1
   584   376   395     1
   585   377   378     2
   586   377   396     1
   587   378   397     1
   588   379   380     2
   589   379   398     1
   590   380   399     1
   591   381   382     2
   592   381   420     1
   593   382   401     1
   594   383   384     2
   595   383   402     1
   596   384   403     1
   597   385   386     2
   598   385   404     1
   599   386   405     1
   600   387   388     2
   601   387   406     1
   602   388   407     1
   603   389   390     2
   604   389   408     1
   605   390   409     1
   606   391   392     2
   607   391   410     1
   608   392   411     1
   609   393   394     2
   610   393   412     1
   611   394   413     1
   612   395   396     2
   613   395   414     1
   614   396   415     1
   615   397   398     2
   616   397   416     1
   617   398   417     1
   618   399   400     2
   619   399   418     1
   620   400   419     1
   621   401   402     2
   622   401   440     1
   623   402   421     1
   624   403   404     2
   625   403   422     1
   626   404   423     1
   627   405   406     2
   628   405   424     1
   629   406   425     1
   630   407   408     2
   631   407   426     1
   632   408   427     1
   633   409   410     2
   634   409   428     1
   635   410   429     1
   636   411   412     2
   637   411   430     1
   638   412   431     1
   639   413   414     2
   640   413   432     1
   641   414   433     1
   642   415   416     2
   643   415   434     1
   644   416   435     1
   645   417   418     2
   646   417   436     1
   647   418   437     1
   648   419   420     2
   649   419   438     1
   650   420   439     1
   651   421   422     2
   652   421   460     1
   653   422   441     1
   654   423   424     2
   655   423   442     1
   656   424   443     1
   657   425   426     2
   658   425   444     1
   659   426   445     1
   660   427   428     2
   661   427   446     1
   662   428   447     1
   663   429   430     2
   664   429   448     1
   665   430   449     1
   666   431   432     2
   667   431   450     1
   668   432   451     1
   669   433   434     2
   670   433   452     1
   671   434   453     1
   672   435   436     2
   673   435   454     1
   674   436   455     1
   675   437   438     2
   676   437   456     1
   677   438   457     1
   678   439   440     2
   679   439   458     1
   680   440   459     1
   681   441   442     2
   682   441   480     1
   683   442   461     1
   684   443   444     2
   685   443   462     1
   686   444   463     1
   687   445   446     2
   688   445   464     1
   689   446   465     1
   690   447   448     2
   691   447   466     1
   692   448   467     1
   693   449   450     2
   694   449   468     1
   695   450   469     1
   696   451   452     2
   697   451   470     1
   698   452   471     1
   699   453   454     2
   700   453   472     1
   701   454   473     1
   702   455   456     2
   703   455   474     1
   704   456   475     1
   705   457   458     2
   706   457   476     1
   707   458   477     1
   708   459   460     2
   709   459   478     1
   710   460   479     1
   711   461   462     2
   712   461   500     1
   713   462   481     1
   714   463   464     2
   715   463   482     1
   716   464   483     1
   717   465   466     2
   718   465   484     1
   719   466   485     1
   720   467   468     2
   721   467   486     1
   722   468   487     1
   723   469   470     2
   724   469   488     1
   725   470   489     1
   726   471   472     2
   727   471   490     1
   728   472   491     1
   729   473   474     2
   730   473   492     1
   731   474   493     1
   732   475   476     2
   733   475   494     1
   734   476   495     1
   735   477   478     2
   736   477   496     1
   737   478   497     1
   738   479   480     2
   739   479   498     1
   740   480   499     1
   741   481   482     2
   742   481   520     1
   743   482   501     1
   744   483   484     2
   745   483   502     1
   746   484   503     1
   747   485   486     2
   748   485   504     1
   749   486   505     1
   750   487   488     2
   751   487   506     1
   752   488   507     1
   753   489   490     2
   754   489   508     1
   755   490   509     1
   756   491   492     2
   757   491   510     1
   758   492   511     1
   759   493   494     2
   760   493   512     1
   761   494   513     1
   762   495   496     2
   763   495   514     1
   764   496   515     1
   765   497   498     2
   766   497   516     1
   767   498   517     1
   768   499   500     2
   769   499   518     1
   770   500   519     1
   771   501   502     2
   772   501   540     1
   773   502   521     1
   774   503   504     2
   775   503   522     1
   776   504   523     1
   777   505   506     2
   778   505   524     1
   779   506   525     1
   780   507   508     2
   781   507   526     1
   782   508   527     1
   783   509   510     2
   784   509   528     1
   785   510   529     1
   786   511   512     2
   787   511   530     1
   788   512   531     1
   789   513   514     2
   790   513   532     1
   791   514   533     1
   792   515   516     2
   793   515   534     1
   794   516   535     1
   795   517   518     2
   796   517   536     1
   797   518   537     1
   798   519   520     2
   799   519   538     1
   800   520   539     1
   801   521   522     2
   802   521   560     1
   803   522   541     1
   804   523   524     2
   805   523   542     1
   806   524   543     1
   807   525   526     2
   808   525   544     1
   809   526   545     1
   810   527   528     2
   811   527   546     1
   812   528   547     1
   813   529   530     2
   814   529   548     1
   815   530   549     1
   816   531   532     2
   817   531   550     1
   818   532   551     1
   819   533   534     2
   820   533   552     1
   821   534   553     1
   822   535   536     2
   823   535   554     1
   824   536   555     1
   825   537   538     2
   826   537   556     1
   827   538   557     1
   828   539   540     2
   829   539   558     1
   830   540   559     1
   831   541   542     2
   832   541   580     1
   833   542   561     1
   834   543   544     2
   835   543   562     1
   836   544   563     1
   837   545   546     2
   838   545   564     1
   839   546   565     1
   840   547   548     2
   841   547   566     1
   842   548   567     1
   843   549   550     2
   844   549   568     1
   845   550   569     1
   846   551   552     2
   847   551   570     1
   848   552   571     1
   849   553   554     2
   850   553   572     1
   851   554   573     1
   852   555   556     2
   853   555   574     1
   854   556   575     1
   855   557   558     2
   856   557   576     1
   857   558   577     1
   858   559   560     2
   859   559   578     1
   860   560   579     1
   861   561   562     2
   862   561   600     1
   863   562   581     1
   864   563   564     2
   865   563   582     1
   866   564   583     1
   867   565   566     2
   868   565   584     1
   869   566   585     1
   870   567   568     2
   871   567   586     1
   872   568   587     1
   873   569   570     2
   874   569   588     1
   875   570   589     1
   876   571   572     2
   877   571   590     1
   878   572   591     1
   879   573   574     2
   880   573   592     1
   881   574   593     1
   882   575   576     2
   883   575   594     1
   884   576   595     1
   885   577   578     2
   886   577   596     1
   887   578   597     1
   888   579   580     2
   889   579   598     1
   890   580   599     1
   891   581   582     2
   892   581   620     1
   893   582   601     1
   894   583   584     2
   895   583   602     1
   896   584   603     1
   897   585   586     2
   898   585   604     1
   899   586   605     1
   900   587   588     2
   901   587   606     1
   902   588   607     1
   903   589   590     2
   904   589   608     1
   905   590   609     1
   906   591   592     2
   907   591   610     1
   908   592   611     1
   909   593   594     2
   910   593   612     1
   911   594   613     1
   912   595   596     2
   913   595   614     1
   914   596   615     1
   915   597   598     2
   916   597   616     1
   917   598   617     1
   918   599   600     2
   919   599   618     1
   920   600   619     1
   921   601   602     2
   922   601   640     1
   923   602   621     1
   924   603   604     2
   925   603   622     1
   926   604   623     1
   927   605   606     2
   928   605   624     1
   929   606   625     1
   930   607   608     2
   931   607   626     1
   932   608   627     1
   933   609   610     2
   934   609   628     1
   935   610   629     1
   936   611   612     2
   937   611   630     1
   938   612   631     1
   939   613   614     2
   940   613   632     1
   941   614   633     1
   942   615   616     2
   943   615   634     1
   944   616   635     1
   945   617   618     2
   946   617   636     1
   947   618   637     1
   948   619   620     2
   949   619   638     1
   950   620   639     1
   951   621   622     2
   952   621   660     1
   953   622   641     1
   954   623   624     2
   955   623   642     1
   956   624   643     1
   957   625   626     2
   958   625   644     1
   959   626   645     1
   960   627   628     2
   961   627   646     1
   962   628   647     1
   963   629   630     2
   964   629   648     1
   965   630   649     1
   966   631   632     2
   967   631   650     1
   968   632   651     1
   969   633   634     2
   970   633   652     1
   971   634   653     1
   972   635   636     2
   973   635   654     1
   974   636   655     1
   975   637   638     2
   976   637   656     1
   977   638   657     1
   978   639   640     2
   979   639   658     1
   980   640   659     1
   981   641   642     2
   982   641   680     1
   983   642   661     1
   984   643   644     2
   985   643   662     1
   986   644   663     1
   987   645   646     2
   988   645   664     1
   989   646   665     1
   990   647   648     2
   991   647   666     1
   992   648   667     1
   993   649   650     2
   994   649   668     1
   995   650   669     1
   996   651   652     2
   997   651   670     1
   998   652   671     1
   999   653   654     2
  1000   653   672     1
  1001   654   673     1
  1002   655   656     2
  1003   655   674     1
  1004   656   675     1
  1005   657   658     2
  1006   657   676     1
  1007   658   677     1
  1008   659   660     2
  1009   659   678     1
  1010   660   679     1
  1011   661   662     2
  1012   661   700     1
  1013   662   681     1
  1014   663   664     2
  1015   663   682     1
  1016   664   683     1
  1017   665   666     2
  1018   665   684     1
  1019   666   685     1
  1020   667   668     2
  1021   667   686     1
  1022   668   687     1
  1023   669   670     2
  1024   669   688     1
  1025   670   689     1
  1026   671   672     2
  1027   671   690     1
  1028   672   691     1
  1029   673   674     2
  1030   673   692     1
  1031   674   693     1
  1032   675   676     2
  1033   675   694     1
  1034   676   695     1
  1035   677   678     2
  1036   677   696     1
  1037   678   697     1
  1038   679   680     2
  1039   679   698     1
  1040   680   699     1
  1041   681   682     2
  1042   681   720     1
  1043   682   701     1
  1044   683   684     2
  1045   683   702     1
  1046   684   703     1
  1047   685   686     2
  1048   685   704     1
  1049   686   705     1
  1050   687   688     2
  1051   687   706     1
  1052   688   707     1
  1053   689   690     2
  1054   689   708     1
  1055   690   709     1
  1056   691   692     2
  1057   691   710     1
  1058   692   711     1
  1059   693   694     2
  1060   693   712     1
  1061   694   713     1
  1062   695   696     2
  1063   695   714     1
  1064   696   715     1
  1065   697   698     2
  1066   697   716     1
  1067   698   717     1
  1068   699   700     2
  1069   699   718     1
  1070   700   719     1
  1071   701   702     2
  1072   701   740     1
  1073   702   721     1
  1074   703   704     2
  1075   703   722     1
  1076   704   723     1
  1077   705   706     2
  1078   705   724     1
  1079   706   725     1
  1080   707   708     2
  1081   707   726     1
  1082   708   727     1
  1083   709   710     2
  1084   709   728     1
  1085   710   729     1
  1086   711   712     2
  1087   711   730     1
  1088   712   731     1
  1089   713   714     2
  1090   713   732     1
  1091   714   733     1
  1092   715   716     2
  1093   715   734     1
  1094   716   735     1
  1095   717   718     2
  1096   717   736     1
  1097   718   737     1
  1098   719   720     2
  1099   719   738     1
  1100   720   739     1
  1101   721   722     2
  1102   721   760     1
  1103   722   741     1
  1104   723   724     2
  1105   723   742     1
  1106   724   743     1
  1107   725   726     2
  1108   725   744     1
  1109   726   745     1
  1110   727   728     2
  1111   727   746     1
  1112   728   747     1
  1113   729   730     2
  1114   729   748     1
  1115   730   749     1
  1116   731   732     2
  1117   731   750     1
  1118   732   751     1
  1119   733   734     2
  1120   733   752     1
  1121   734   753     1
  1122   735   736     2
  1123   735   754     1
  1124   736   755     1
  1125   737   738     2
  1126   737   756     1
  1127   738   757     1
  1128   739   740     2
  1129   739   758     1
  1130   740   759     1
  1131   741   742     2
  1132   741   780     1
  1133   742   761     1
  1134   743   744     2
  1135   743   762     1
  1136   744   763     1
  1137   745   746     2
  1138   745   764     1
  1139   746   765     1
  1140   747   748     2
  1141   747   766     1
  1142   748   767     1
  1143   749   750     2
  1144   749   768     1
  1145   750   769     1
  1146   751   752     2
  1147   751   770     1
  1148   752   771     1
  1149   753   754     2
  1150   753   772     1
  1151   754   773     1
  1152   755   756     2
  1153   755   774     1
  1154   756   775     1
  1155   757   758     2
  1156   757   776     1
  1157   758   777     1
  1158   759   760     2
  1159   759   778     1
  1160   760   779     1
  1161   761   762     2
  1162   761   800     1
  1163   762   781     1
  1164   763   764     2
  1165   763   782     1
  1166   764   783     1
  1167   765   766     2
  1168   765   784     1
  1169   766   785     1
  1170   767   768     2
  1171   767   786     1
  1172   768   787     1
  1173   769   770     2
  1174   769   788     1
  1175   770   789     1
  1176   771   772     2
  1177   771   790     1
  1178   772   791     1
  1179   773   774     2
  1180   773   792     1
  1181   774   793     1
  1182   775   776     2
  1183   775   794     1
  1184   776   795     1
  1185   777   778     2
  1186   777   796     1
  1187   778   797     1
  1188   779   780     2
  1189   779   798     1
  1190   780   799     1
  1191   781   782     2
  1192   781   820     1
  1193   782   801     1
  1194   783   784     2
  1195   783   802     1
  1196   784   803     1
  1197   785   786     2
  1198   785   804     1
  1199   786   805     1
  1200   787   788     2
  1201   787   806     1
  1202   788   807     1
  1203   789   790     2
  1204   789   808     1
  1205   790   809     1
  1206   791   792     2
  1207   791   810     1
  1208   792   811     1
  1209   793   794     2
  1210   793   812     1
  1211   794   813     1
  1212   795   796     2
  1213   795   814     1
  1214   796   815     1
  1215   797   798     2
  1216   797   816     1
  1217   798   817     1
  1218   799   800     2
  1219   799   818     1
  1220   800   819     1
  1221   801   802     2
  1222   801   840     1
  1223   802   821     1
  1224   803   804     2
  1225   803   822     1
  1226   804   823     1
  1227   805   806     2
  1228   805   824     1
  1229   806   825     1
  1230   807   808     2
  1231   807   826     1
  1232   808   827     1
  1233   809   810     2
  1234   809   828     1
  1235   810   829     1
  1236   811   812     2
  1237   811   830     1
  1238   812   831     1
  1239   813   814     2
  1240   813   832     1
  1241   814   833     1
  1242   815   816     2
  1243   815   834     1
  1244   816   835     1
  1245   817   818     2
  1246   817   836     1
  1247   818   837     1
  1248   819   820     2
  1249   819   838     1
  1250   820   839     1
  1251   821   822     2
  1252   821   860     1
  1253   822   841     1
  1254   823   824     2
  1255   823   842     1
  1256   824   843     1
  1257   825   826     2
  1258   825   844     1
  1259   826   845     1
  1260   827   828     2
  1261   827   846     1
  1262   828   847     1
  1263   829   830     2
  1264   829   848     1
  1265   830   849     1
  1266   831   832     2
  1267   831   850     1
  1268   832   851     1
  1269   833   834     2
  1270   833   852     1
  1271   834   853     1
  1272   835   836     2
  1273   835   854     1
  1274   836   855     1
  1275   837   838     2
  1276   837   856     1
  1277   838   857     1
  1278   839   840     2
  1279   839   858     1
  1280   840   859     1
  1281   841   842     2
  1282   841   880     1
  1283   842   861     1
  1284   843   844     2
  1285   843   862     1
  1286   844   863     1
  1287   845   846     2
  1288   845   864     1
  1289   846   865     1
  1290   847   848     2
  1291   847   866     1
  1292   848   867     1
  1293   849   850     2
  1294   849   868     1
  1295   850   869     1
  1296   851   852     2
  1297   851   870     1
  1298   852   871     1
  1299   853   854     2
  1300   853   872     1
  1301   854   873     1
  1302   855   856     2
  1303   855   874     1
  1304   856   875     1
  1305   857   858     2
  1306   857   876     1
  1307   858   877     1
  1308   859   860     2
  1309   859   878     1
  1310   860   879     1
  1311   861   862     2
  1312   861   900     1
  1313   862   881     1
  1314   863   864     2
  1315   863   882     1
  1316   864   883     1
  1317   865   866     2
  1318   865   884     1
  1319   866   885     1
  1320   867   868     2
  1321   867   886     1
  1322   868   887     1
  1323   869   870     2
  1324   869   888     1
  1325   870   889     1
  1326   871   872     2
  1327   871   890     1
  1328   872   891     1
  1329   873   874     2
  1330   873   892     1
  1331   874   893     1
  1332   875   876     2
  1333   875   894     1
  1334   876   895     1
  1335   877   878     2
  1336   877   896     1
  1337   878   897     1
  1338   879   880     2
  1339   879   898     1
  1340   880   899     1
  1341   881   882     2
  1342   881   920     1
  1343   882   901     1
  1344   883   884     2
  1345   883   902     1
  1346   884   903     1
  1347   885   886     2
  1348   885   904     1
  1349   886   905     1
  1350   887   888     2
  1351   887   906     1
  1352   888   907     1
  1353   889   890     2
  1354   889   908     1
  1355   890   909     1
  1356   891   892     2
  1357   891   910     1
  1358   892   911     1
  1359   893   894     2
  1360   893   912     1
  1361   894   913     1
  1362   895   896     2
  1363   895   914     1
  1364   896   915     1
  1365   897   898     2
  1366   897   916     1
  1367   898   917     1
  1368   899   900     2
  1369   899   918     1
  1370   900   919     1
  1371   901   902     2
  1372   901   940     1
  1373   902   921     1
  1374   903   904     2
  1375   903   922     1
  1376   904   923     1
  1377   905   906     2
  1378   905   924     1
  1379   906   925     1
  1380   907   908     2
  1381   907   926     1
  1382   908   927     1
  1383   909   910     2
  1384   909   928     1
  1385   910   929     1
  1386   911   912     2
  1387   911   930     1
  1388   912   931     1
  1389   913   914     2
  1390   913   932     1
  1391   914   933     1
  1392   915   916     2
  1393   915   934     1
  1394   916   935     1
  1395   917   918     2
  1396   917   936     1
  1397   918   937     1
  1398   919   920     2
  1399   919   938     1
  1400   920   939     1
  1401   921   922     2
  1402   921   960     1
  1403   922   941     1
  1404   923   924     2
  1405   923   942     1
  1406   924   943     1
  1407   925   926     2
  1408   925   944     1
  1409   926   945     1
  1410   927   928     2
  1411   927   946     1
  1412   928   947     1
  1413   929   930     2
  1414   929   948     1
  1415   930   949     1
  1416   931   932     2
  1417   931   950     1
  1418   932   951     1
  1419   933   934     2
  1420   933   952     1
  1421   934   953     1
  1422   935   936     2
  1423   935   954     1
  1424   936   955     1
  1425   937   938     2
  1426   937   956     1
  1427   938   957     1
  1428   939   940     2
  1429   939   958     1
  1430   940   959     1
  1431   941   942     2
  1432   941   980     1
  1433   942   961     1
  1434   943   944     2
  1435   943   962     1
  1436   944   963     1
  1437   945   946     2
  1438   945   964     1
  1439   946   965     1
  1440   947   948     2
  1441   947   966     1
  1442   948   967     1
  1443   949   950     2
  1444   949   968     1
  1445   950   969     1
  1446   951   952     2
  1447   951   970     1
  1448   952   971     1
  1449   953   954     2
  1450   953   972     1
  1451   954   973     1
  1452   955   956     2
  1453   955   974     1
  1454   956   975     1
  1455   957   958     2
  1456   957   976     1
  1457   958   977     1
  1458   959   960     2
  1459   959   978     1
  1460   960   979     1
  1461   961   962     2
  1462   961  1000     1
  1463   962   981     1
  1464   963   964     2
  1465   963   982     1
  1466   964   983     1
  1467   965   966     2
  1468   965   984     1
  1469   966   985     1
  1470   967   968     2
  1471   967   986     1
  1472   968   987     1
  1473   969   970     2
  1474   969   988     1
  1475   970   989     1
  1476   971   972     2
  1477   971   990     1
  1478   972   991     1
  1479   973   974     2
  1480   973   992     1
  1481   974   993     1
  1482   975   976     2
  1483   975   994     1
  1484   976   995     1
  1485   977   978     2
  1486   977   996     1
  1487   978   997     1
  1488   979   980     2
  1489   979   998     1
  1490   980   999     1
  1491   981   982     2
  1492   981  1020     1
  1493   982  1001     1
  1494   983   984     2
  1495   983  1002     1
  1496   984  1003     1
  1497   985   986     2
  1498   985  1004     1
  1499   986  1005     1
  1500   987   988     2
  1501   987  1006     1
  1502   988  1007     1
  1503   989   990     2
  1504   989  1008     1
  1505   990  1009     1
  1506   991   992     2
  1507   991  1010     1
  1508   992  1011     1
  1509   993   994     2
  1510   993  1012     1
  1511   994  1013     1
  1512   995   996     2
  1513   995  1014     1
  1514   996  1015     1
  1515   997   998     2
  1516   997  1016     1
  1517   998  1017     1
  1518   999  1000     2
  1519   999  1018     1
  1520  1000  1019     1
  1521  1001  1002     2
  1522  1001  1040     1
  1523  1002  1021     1
  1524  1003  1004     2
  1525  1003  1022     1
  1526  1004  1023     1
  1527  1005  1006     2
  1528  1005  1024     1
  1529  1006  1025     1
  1530  1007  1008     2
  1531  1007  1026     1
  1532  1008  1027     1
  1533  1009  1010     2
  1534  1009  1028     1
  1535  1010  1029     1
  1536  1011  1012     2
  1537  1011  1030     1
  1538  1012  1031     1
  1539  1013  1014     2
  1540  1013  1032     1
  1541  1014  1033     1
  1542  1015  1016     2
  1543  1015  1034     1
  1544  1016  1035     1
  1545  1017  1018     2
  1546  1017  1036     1
  1547  1018  1037     1
  1548  1019  1020     2
  1549  1019  1038     1
  1550  1020  1039     1
  1551  1021  1022     2
  1552  1021  1060     1
  1553  1022  1041     1
  1554  1023  1024     2
  1555  1023  1042     1
  1556  1024  1043     1
  1557  1025  1026     2
  1558  1025  1044     1
  1559  1026  1045     1
  1560  1027  1028     2
  1561  1027  1046     1
  1562  1028  1047     1
  1563  1029  1030     2
  1564  1029  1048     1
  1565  1030  1049     1
  1566  1031  1032     2
  1567  1031  1050     1
  1568  1032  1051     1
  1569  1033  1034     2
  1570  1033  1052     1
  1571  1034  1053     1
  1572  1035  1036     2
  1573  1035  1054     1
  1574  1036  1055     1
  1575  1037  1038     2
  1576  1037  1056     1
  1577  1038  1057     1
  1578  1039  1040     2
  1579  1039  1058     1
  1580  1040  1059     1
  1581  1041  1042     2
  1582  1041  1080     1
  1583  1042  1061     1
  1584  1043  1044     2
  1585  1043  1062     1
  1586  1044  1063     1
  1587  1045  1046     2
  1588  1045  1064     1
  1589  1046  1065     1
  1590  1047  1048     2
  1591  1047  1066     1
  1592  1048  1067     1
  1593  1049  1050     2
  1594  1049  1068     1
  1595  1050  1069     1
  1596  1051  1052     2
  1597  1051  1070     1
  1598  1052  1071     1
  1599  1053  1054     2
  1600  1053  1072     1
  1601  1054  1073     1
  1602  1055  1056     2
  1603  1055  1074     1
  1604  1056  1075     1
  1605  1057  1058     2
  1606  1057  1076     1
  1607  1058  1077     1
  1608  1059  1060     2
  1609  1059  1078     1
  1610  1060  1079     1
  1611  1061  1062     2
  1612  1061  1100     1
  1613  1062  1081     1
  1614  1063  1064     2
  1615  1063  1082     1
  1616  1064  1083     1
  1617  1065  1066     2
  1618  1065  1084     1
  1619  1066  1085     1
  1620  1067  1068     2
  1621  1067  1086     1
  1622  1068  1087     1
  1623  1069  1070     2
  1624  1069  1088     1
  1625  1070  1089     1
  1626  1071  1072     2
  1627  1071  1090     1
  1628  1072  1091     1
  1629  1073  1074     2
  1630  1073  1092     1
  1631  1074  1093     1
  1632  1075  1076     2
  1633  1075  1094     1
  1634  1076  1095     1
  1635  1077  1078     2
  1636  1077  1096     1
  1637  1078  1097     1
  1638  1079  1080     2
  1639  1079  1098     1
  1640  1080  1099     1
  1641  1081  1082     2
  1642  1081  1120     1
  1643  1082  1101     1
  1644  1083  1084     2
  1645  1083  1102     1
  1646  1084  1103     1
  1647  1085  1086     2
  1648  1085  1104     1
  1649  1086  1105     1
  1650  1087  1088     2
  1651  1087  1106     1
  1652  1088  1107     1
  1653  1089  1090     2
  1654  1089  1108     1
  1655  1090  1109     1
  1656  1091  1092     2
  1657  1091  1110     1
  1658  1092  1111     1
  1659  1093  1094     2
  1660  1093  1112     1
  1661  1094  1113     1
  1662  1095  1096     2
  1663  1095  1114     1
  1664  1096  1115     1
  1665  1097  1098     2
  1666  1097  1116     1
  1667  1098  1117     1
  1668  1099  1100     2
  1669  1099  1118     1
  1670  1100  1119     1
  1671  1101  1102     2
  1672  1101  1140     1
  1673  1102  1121     1
  1674  1103  1104     2
  1675  1103  1122     1
  1676  1104  1123     1
  1677  1105  1106     2
  1678  1105  1124     1
  1679  1106  1125     1
  1680  1107  1108     2
  1681  1107  1126     1
  1682  1108  1127     1
  1683  1109  1110     2
  1684  1109  1128     1
  1685  1110  1129     1
  1686  1111  1112     2
  1687  1111  1130     1
  1688  1112  1131     1
  1689  1113  1114     2
  1690  1113  1132     1
  1691  1114  1133     1
  1692  1115  1116     2
  1693  1115  1134     1
  1694  1116  1135     1
  1695  1117  1118     2
  1696  1117  1136     1
  1697  1118  1137     1
  1698  1119  1120     2
  1699  1119  1138     1
  1700  1120  1139     1
  1701  1121  1122     2
  1702  1121  1160     1
  1703  1122  1141     1
  1704  1123  1124     2
  1705  1123  1142     1
  1706  1124  1143     1
  1707  1125  1126     2
  1708  1125  1144     1
  1709  1126  1145     1
  1710  1127  1128     2
  1711  1127  1146     1
  1712  1128  1147     1
  1713  1129  1130     2
  1714  1129  1148     1
  1715  1130  1149     1
  1716  1131  1132     2
  1717  1131  1150     1
  1718  1132  1151     1
  1719  1133  1134     2
  1720  1133  1152     1
  1721  1134  1153     1
  1722  1135  1136     2
  1723  1135  1154     1
  1724  1136  1155     1
  1725  1137  1138     2
  1726  1137  1156     1
  1727  1138  1157     1
  1728  1139  1140     2
  1729  1139  1158     1
  1730  1140  1159     1
  1731  1141  1142     2
  1732  1141  1180     1
  1733  1142  1161     1
  1734  1143  1144     2
  1735  1143  1162     1
  1736  1144  1163     1
  1737  1145  1146     2
  1738  1145  1164     1
  1739  1146  1165     1
  1740  1147  1148     2
  1741  1147  1166     1
  1742  1148  1167     1
  1743  1149  1150     2
  1744  1149  1168     1
  1745  1150  1169     1
  1746  1151  1152     2
  1747  1151  1170     1
  1748  1152  1171     1
  1749  1153  1154     2
  1750  1153  1172     1
  1751  1154  1173     1
  1752  1155  1156     2
  1753  1155  1174     1
  1754  1156  1175     1
  1755  1157  1158     2
  1756  1157  1176     1
  1757  1158  1177     1
  1758  1159  1160     2
  1759  1159  1178     1
  1760  1160  1179     1
  1761  1161  1162     2
  1762  1161  1200     1
  1763  1162  1181     1
  1764  1163  1164     2
  1765  1163  1182     1
  1766  1164  1183     1
  1767  1165  1166     2
  1768  1165  1184     1
  1769  1166  1185     1
  1770  1167  1168     2
  1771  1167  1186     1
  1772  1168  1187     1
  1773  1169  1170     2
  1774  1169  1188     1
  1775  1170  1189     1
  1776  1171  1172     2
  1777  1171  1190     1
  1778  1172  1191     1
  1779  1173  1174     2
  1780  1173  1192     1
  1781  1174  1193     1
  1782  1175  1176     2
  1783  1175  1194     1
  1784  1176  1195     1
  1785  1177  1178     2
  1786  1177  1196     1
  1787  1178  1197     1
  1788  1179  1180     2
  1789  1179  1198     1
  1790  1180  1199     1
  1791  1181  1182     2
  1792  1181  1220     1
  1793  1182  1201     1
  1794  1183  1184     2
  1795  1183  1202     1
  1796  1184  1203     1
  1797  1185  1186     2
  1798  1185  1204     1
  1799  1186  1205     1
  1800  1187  1188     2
  1801  1187  1206     1
  1802  1188  1207     1
  1803  1189  1190     2
  1804  1189  1208     1
  1805  1190  1209     1
  1806  1191  1192     2
  1807  1191  1210     1
  1808  1192  1211     1
  1809  1193  1194     2
  1810  1193  1212     1
  1811  1194  1213     1
  1812  1195  1196     2
  1813  1195  1214     1
  1814  1196  1215     1
  1815  1197  1198     2
  1816  1197  1216     1
  1817  1198  1217     1
  1818  1199  1200     2
  1819  1199  1218     1
  1820  1200  1219     1
  1821  1201  1202     2
  1822  1201  1240     1
  1823  1202  1221     1
  1824  1203  1204     2
  1825  1203  1222     1
  1826  1204  1223     1
  1827  1205  1206     2
  1828  1205  1224     1
  1829  1206  1225     1
  1830  1207  1208     2
  1831  1207  1226     1
  1832  1208  1227     1
  1833  1209  1210     2
  1834  1209  1228     1
  1835  1210  1229     1
  1836  1211  1212     2
  1837  1211  1230     1
  1838  1212  1231     1
  1839  1213  1214     2
  1840  1213  1232     1
  1841  1214  1233     1
  1842  1215  1216     2
  1843  1215  1234     1
  1844  1216  1235     1
  1845  1217  1218     2
  1846  1217  1236     1
  1847  1218  1237     1
  1848  1219  1220     2
  1849  1219  1238     1
  1850  1220  1239     1
  1851  1221  1222     2
  1852  1221  1260     1
  1853  1222  1241     1
  1854  1223  1224     2
  1855  1223  1242     1
  1856  1224  1243     1
  1857  1225  1226     2
  1858  1225  1244     1
  1859  1226  1245     1
  1860  1227  1228     2
  1861  1227  1246     1
  1862  1228  1247     1
  1863  1229  1230     2
  1864  1229  1248     1
  1865  1230  1249     1
  1866  1231  1232     2
  1867  1231  1250     1
  1868  1232  1251     1
  1869  1233  1234     2
  1870  1233  1252     1
  1871  1234  1253     1
  1872  1235  1236     2
  1873  1235  1254     1
  1874  1236  1255     1
  1875  1237  1238     2
  1876  1237  1256     1
  1877  1238  1257     1
  1878  1239  1240     2
  1879  1239  1258     1
  1880  1240  1259     1
  1881  1241  1242     2
  1882  1241  1280     1
  1883  1242  1261     1
  1884  1243  1244     2
  1885  1243  1262     1
  1886  1244  1263     1
  1887  1245  1246     2
  1888  1245  1264     1
  1889  1246  1265     1
  1890  1247  1248     2
  1891  1247  1266     1
  1892  1248  1267     1
  1893  1249  1250     2
  1894  1249  1268     1
  1895  1250  1269     1
  1896  1251  1252     2
  1897  1251  1270     1
  1898  1252  1271     1
  1899  1253  1254     2
  1900  1253  1272     1
  1901  1254  1273     1
  1902  1255  1256     2
  1903  1255  1274     1
  1904  1256  1275     1
  1905  1257  1258     2
  1906  1257  1276     1
  1907  1258  1277     1
  1908  1259  1260     2
  1909  1259  1278     1
  1910  1260  1279     1
  1911  1261  1262     2
  1912  1261  1300     1
  1913  1262  1281     1
  1914  1263  1264     2
  1915  1263  1282     1
  1916  1264  1283     1
  1917  1265  1266     2
  1918  1265  1284     1
  1919  1266  1285     1
  1920  1267  1268     2
  1921  1267  1286     1
  1922  1268  1287     1
  1923  1269  1270     2
  1924  1269  1288     1
  1925  1270  1289     1
  1926  1271  1272     2
  1927  1271  1290     1
  1928  1272  1291     1
  1929  1273  1274     2
  1930  1273  1292     1
  1931  1274  1293     1
  1932  1275  1276     2
  1933  1275  1294     1
  1934  1276  1295     1
  1935  1277  1278     2
  1936  1277  1296     1
  1937  1278  1297     1
  1938  1279  1280     2
  1939  1279  1298     1
  1940  1280  1299     1
  1941  1281  1282     2
  1942  1281  1320     1
  1943  1282  1301     1
  1944  1283  1284     2
  1945  1283  1302     1
  1946  1284  1303     1
  1947  1285  1286     2
  1948  1285  1304     1
  1949  1286  1305     1
  1950  1287  1288     2
  1951  1287  1306     1
  1952  1288  1307     1
  1953  1289  1290     2
  1954  1289  1308     1
  1955  1290  1309     1
  1956  1291  1292     2
  1957  1291  1310     1
  1958  1292  1311     1
  1959  1293  1294     2
  1960  1293  1312     1
  1961  1294  1313     1
  1962  1295  1296     2
  1963  1295  1314     1
  1964  1296  1315     1
  1965  1297  1298     2
  1966  1297  1316     1
  1967  1298  1317     1
  1968  1299  1300     2
  1969  1299  1318     1
  1970  1300  1319     1
  1971  1301  1302     2
  1972  1301  1340     1
  1973  1302  1321     1
  1974  1303  1304     2
  1975  1303  1322     1
  1976  1304  1323     1
  1977  1305  1306     2
  1978  1305  1324     1
  1979  1306  1325     1
  1980  1307  1308     2
  1981  1307  1326     1
  1982  1308  1327     1
  1983  1309  1310     2
  1984  1309  1328     1
  1985  1310  1329     1
  1986  1311  1312     2
  1987  1311  1330     1
  1988  1312  1331     1
  1989  1313  1314     2
  1990  1313  1332     1
  1991  1314  1333     1
  1992  1315  1316     2
  1993  1315  1334     1
  1994  1316  1335     1
  1995  1317  1318     2
  1996  1317  1336     1
  1997  1318  1337     1
  1998  1319  1320     2
  1999  1319  1338     1
  2000  1320  1339     1
  2001  1321  1322     2
  2002  1321  1360     1
  2003  1322  1341     1
  2004  1323  1324     2
  2005  1323  1342     1
  2006  1324  1343     1
  2007  1325  1326     2
  2008  1325  1344     1
  2009  1326  1345     1
  2010  1327  1328     2
  2011  1327  1346     1
  2012  1328  1347     1
  2013  1329  1330     2
  2014  1329  1348     1
  2015  1330  1349     1
  2016  1331  1332     2
  2017  1331  1350     1
  2018  1332  1351     1
  2019  1333  1334     2
  2020  1333  1352     1
  2021  1334  1353     1
  2022  1335  1336     2
  2023  1335  1354     1
  2024  1336  1355     1
  2025  1337  1338     2
  2026  1337  1356     1
  2027  1338  1357     1
  2028  1339  1340     2
  2029  1339  1358     1
  2030  1340  1359     1
  2031  1341  1342     2
  2032  1341  1380     1
  2033  1342  1361     1
  2034  1343  1344     2
  2035  1343  1362     1
  2036  1344  1363     1
  2037  1345  1346     2
  2038  1345  1364     1
  2039  1346  1365     1
  2040  1347  1348     2
  2041  1347  1366     1
  2042  1348  1367     1
  2043  1349  1350     2
  2044  1349  1368     1
  2045  1350  1369     1
  2046  1351  1352     2
  2047  1351  1370     1
  2048  1352  1371     1
  2049  1353  1354     2
  2050  1353  1372     1
  2051  1354  1373     1
  2052  1355  1356     2
  2053  1355  1374     1
  2054  1356  1375     1
  2055  1357  1358     2
  2056  1357  1376     1
  2057  1358  1377     1
  2058  1359  1360     2
  2059  1359  1378     1
  2060  1360  1379     1
  2061  1361  1362     2
  2062  1361  1400     1
  2063  1362  1381     1
  2064  1363  1364     2
  2065  1363  1382     1
  2066  1364  1383     1
  2067  1365  1366     2
  2068  1365  1384     1
  2069  1366  1385     1
  2070  1367  1368     2
  2071  1367  1386     1
  2072  1368  1387     1
  2073  1369  1370     2
  2074  1369  1388     1
  2075  1370  1389     1
  2076  1371  1372     2
  2077  1371  1390     1
  2078  1372  1391     1
  2079  1373  1374     2
  2080  1373  1392     1
  2081  1374  1393     1
  2082  1375  1376     2
  2083  1375  1394     1
  2084  1376  1395     1
  2085  1377  1378     2
  2086  1377  1396     1
  2087  1378  1397     1
  2088  1379  1380     2
  2089  1379  1398     1
  2090  1380  1399     1
  2091  1381  1382     2
  2092  1381  1420     1
  2093  1382  1401     1
  2094  1383  1384     2
  2095  1383  1402     1
  2096  1384  1403     1
  2097  1385  1386     2
  2098  1385  1404     1
  2099  1386  1405     1
  2100  1387  1388     2
  2101  1387  1406     1
  2102  1388  1407     1
  2103  1389  1390     2
  2104  1389  1408     1
  2105  1390  1409     1
  2106  1391  1392     2
  2107  1391  1410     1
  2108  1392  1411     1
  2109  1393  1394     2
  2110  1393  1412     1
  2111  1394  1413     1
  2112  1395  1396     2
  2113  1395  1414     1
  2114  1396  1415     1
  2115  1397  1398     2
  2116  1397  1416     1
  2117  1398  1417     1
  2118  1399  1400     2
  2119  1399  1418     1
  2120  1400  1419     1
  2121  1401  1402     2
  2122  1401  1440     1
  2123  1402  1421     1
  2124  1403  1404     2
  2125  1403  1422     1
  2126  1404  1423     1
  2127  1405  1406     2
  2128  1405  1424     1
  2129  1406  1425     1
  2130  1407  1408     2
  2131  1407  1426     1
  2132  1408  1427     1
  2133  1409  1410     2
  2134  1409  1428     1
  2135  1410  1429     1
  2136  1411  1412     2
  2137  1411  1430     1
  2138  1412  1431     1
  2139  1413  1414     2
  2140  1413  1432     1
  2141  1414  1433     1
  2142  1415  1416     2
  2143  1415  1434     1
  2144  1416  1435     1
  2145  1417  1418     2
  2146  1417  1436     1
  2147  1418  1437     1
  2148  1419  1420     2
  2149  1419  1438     1
  2150  1420  1439     1
  2151  1421  1422     2
  2152  1421  1460     1
  2153  1422  1441     1
  2154  1423  1424     2
  2155  1423  1442     1
  2156  1424  1443     1
  2157  1425  1426     2
  2158  1425  1444     1
  2159  1426  1445     1
  2160  1427  1428     2
  2161  1427  1446     1
  2162  1428  1447     1
  2163  1429  1430     2
  2164  1429  1448     1
  2165  1430  1449     1
  2166  1431  1432     2
  2167  1431  1450     1
  2168  1432  1451     1
  2169  1433  1434     2
  2170  1433  1452     1
  2171  1434  1453     1
  2172  1435  1436     2
  2173  1435  1454     1
  2174  1436  1455     1
  2175  1437  1438     2
  2176  1437  1456     1
  2177  1438  1457     1
  2178  1439  1440     2
  2179  1439  1458     1
  2180  1440  1459     1
  2181  1441  1442     2
  2182  1441  1480     1
  2183  1442  1461     1
  2184  1443  1444     2
  2185  1443  1462     1
  2186  1444  1463     1
  2187  1445  1446     2
  2188  1445  1464     1
  2189  1446  1465     1
  2190  1447  1448     2
  2191  1447  1466     1
  2192  1448  1467     1
  2193  1449  1450     2
  2194  1449  1468     1
  2195  1450  1469     1
  2196  1451  1452     2
  2197  1451  1470     1
  2198  1452  1471     1
  2199  1453  1454     2
  2200  1453  1472     1
  2201  1454  1473     1
  2202  1455  1456     2
  2203  1455  1474     1
  2204  1456  1475     1
  2205  1457  1458     2
  2206  1457  1476     1
  2207  1458  1477     1
  2208  1459  1460     2
  2209  1459  1478     1
  2210  1460  1479     1
  2211  1461  1462     2
  2212  1461  1500     1
  2213  1462  1481     1
  2214  1463  1464     2
  2215  1463  1482     1
  2216  1464  1483     1
  2217  1465  1466     2
  2218  1465  1484     1
  2219  1466  1485     1
  2220  1467  1468     2
  2221  1467  1486     1
  2222  1468  1487     1
  2223  1469  1470     2
  2224  1469  1488     1
  2225  1470  1489     1
  2226  1471  1472     2
  2227  1471  1490     1
  2228  1472  1491     1
  2229  1473  1474     2
  2230  1473  1492     1
  2231  1474  1493     1
  2232  1475  1476     2
  2233  1475  1494     1
  2234  1476  1495     1
  2235  1477  1478     2
  2236  1477  1496     1
  2237  1478  1497     1
  2238  1479  1480     2
  2239  1479  1498     1
  2240  1480  1499     1
  2241  1481  1482     2
  2242  1481  1520     1
  2243  1482  1501     1
  2244  1483  1484     2
  2245  1483  1502     1
  2246  1484  1503     1
  2247  1485  1486     2
  2248  1485  1504     1
  2249  1486  1505     1
  2250  1487  1488     2
  2251  1487  1506     1
  2252  1488  1507     1
  2253  1489  1490     2
  2254  1489  1508     1
  2255  1490  1509     1
  2256  1491  1492     2
  2257  1491  1510     1
  2258  1492  1511     1
  2259  1493  1494     2
  2260  1493  1512     1
  2261  1494  1513     1
  2262  1495  1496     2
  2263  1495  1514     1
  2264  1496  1515     1
  2265  1497  1498     2
  2266  1497  1516     1
  2267  1498  1517     1
  2268  1499  1500     2
  2269  1499  1518     1
  2270  1500  1519     1
  2271  1501  1502     2
  2272  1501  1540     1
  2273  1502  1521     1
  2274  1503  1504     2
  2275  1503  1522     1
  2276  1504  1523     1
  2277  1505  1506     2
  2278  1505  1524     1
  2279  1506  1525     1
  2280  1507  1508     2
  2281  1507  1526     1
  2282  1508  1527     1
  2283  1509  1510     2
  2284  1509  1528     1
  2285  1510  1529     1
  2286  1511  1512     2
  2287  1511  1530     1
  2288  1512  1531     1
  2289  1513  1514     2
  2290  1513  1532     1
  2291  1514  1533     1
  2292  1515  1516     2
  2293  1515  1534     1
  2294  1516  1535     1
  2295  1517  1518     2
  2296  1517  1536     1
  2297  1518  1537     1
  2298  1519  1520     2
  2299  1519  1538     1
  2300  1520  1539     1
  2301  1521  1522     2
  2302  1521  1560     1
  2303  1522  1541     1
  2304  1523  1524     2
  2305  1523  1542     1
  2306  1524  1543     1
  2307  1525  1526     2
  2308  1525  1544     1
  2309  1526  1545     1
  2310  1527  1528     2
  2311  1527  1546     1
  2312  1528  1547     1
  2313  1529  1530     2
  2314  1529  1548     1
  2315  1530  1549     1
  2316  1531  1532     2
  2317  1531  1550     1
  2318  1532  1551     1
  2319  1533  1534     2
  2320  1533  1552     1
  2321  1534  1553     1
  2322  1535  1536     2
  2323  1535  1554     1
  2324  1536  1555     1
  2325  1537  1538     2
  2326  1537  1556     1
  2327  1538  1557     1
  2328  1539  1540     2
  2329  1539  1558     1
  2330  1540  1559     1
  2331  1541  1542     2
  2332  1541  1580     1
  2333  1542  1561     1
  2334  1543  1544     2
  2335  1543  1562     1
  2336  1544  1563     1
  2337  1545  1546     2
  2338  1545  1564     1
  2339  1546  1565     1
  2340  1547  1548     2
  2341  1547  1566     1
  2342  1548  1567     1
  2343  1549  1550     2
  2344  1549  1568     1
  2345  1550  1569     1
  2346  1551  1552     2
  2347  1551  1570     1
  2348  1552  1571     1
  2349  1553  1554     2
  2350  1553  1572     1
  2351  1554  1573     1
  2352  1555  1556     2
  2353  1555  1574     1
  2354  1556  1575     1
  2355  1557  1558     2
  2356  1557  1576     1
  2357  1558  1577     1
  2358  1559  1560     2
  2359  1559  1578     1
  2360  1560  1579     1
  2361  1561  1562     2
  2362  1561  1600     1
  2363  1562  1581     1
  2364  1563  1564     2
  2365  1563  1582     1
  2366  1564  1583     1
  2367  1565  1566     2
  2368  1565  1584     1
  2369  1566  1585     1
  2370  1567  1568     2
  2371  1567  1586     1
  2372  1568  1587     1
  2373  1569  1570     2
  2374  1569  1588     1
  2375  1570  1589     1
  2376  1571  1572     2
  2377  1571  1590     1
  2378  1572  1591     1
  2379  1573  1574     2
  2380  1573  1592     1
  2381  1574  1593     1
  2382  1575  1576     2
  2383  1575  1594     1
  2384  1576  1595     1
  2385  1577  1578     2
  2386  1577  1596     1
  2387  1578  1597     1
  2388  1579  1580     2
  2389  1579  1598     1
  2390  1580  1599     1
  2391  1581  1582     2
  2392  1581  1620     1
  2393  1582  1601     1
  2394  1583  1584     2
  2395  1583  1602     1
  2396  1584  1603     1
  2397  1585  1586     2
  2398  1585  1604     1
  2399  1586  1605     1
  2400  1587  1588     2
  2401  1587  1606     1
  2402  1588  1607     1
  2403  1589  1590     2
  2404  1589  1608     1
  2405  1590  1609     1
  2406  1591  1592     2
  2407  1591  1610     1
  2408  1592  1611     1
  2409  1593  1594     2
  2410  1593  1612     1
  2411  1594  1613     1
  2412  1595  1596     2
  2413  1595  1614     1
  2414  1596  1615     1
  2415  1597  1598     2
  2416  1597  1616     1
  2417  1598  1617     1
  2418  1599  1600     2
  2419  1599  1618     1
  2420  1600  1619     1
  2421  1601  1602     2
  2422  1601  1640     1
  2423  1602  1621     1
  2424  1603  1604     2
  2425  1603  1622     1
  2426  1604  1623     1
  2427  1605  1606     2
  2428  1605  1624     1
  2429  1606  1625     1
  2430  1607  1608     2
  2431  1607  1626     1
  2432  1608  1627     1
  2433  1609  1610     2
  2434  1609  1628     1
  2435  1610  1629     1
  2436  1611  1612     2
  2437  1611  1630     1
  2438  1612  1631     1
  2439  1613  1614     2
  2440  1613  1632     1
  2441  1614  1633     1
  2442  1615  1616     2
  2443  1615  1634     1
  2444  1616  1635     1
  2445  1617  1618     2
  2446  1617  1636     1
  2447  1618  1637     1
  2448  1619  1620     2
  2449  1619  1638     1
  2450  1620  1639     1
  2451  1621  1622     2
  2452  1621  1660     1
  2453  1622  1641     1
  2454  1623  1624     2
  2455  1623  1642     1
  2456  1624  1643     1
  2457  1625  1626     2
  2458  1625  1644     1
  2459  1626  1645     1
  2460  1627  1628     2
  2461  1627  1646     1
  2462  1628  1647     1
  2463  1629  1630     2
  2464  1629  1648     1
  2465  1630  1649     1
  2466  1631  1632     2
  2467  1631  1650     1
  2468  1632  1651     1
  2469  1633  1634     2
  2470  1633  1652     1
  2471  1634  1653     1
  2472  1635  1636     2
  2473  1635  1654     1
  2474  1636  1655     1
  2475  1637  1638     2
  2476  1637  1656     1
  2477  1638  1657     1
  2478  1639  1640     2
  2479  1639  1658     1
  2480  1640  1659     1
  2481  1641  1642     2
  2482  1641  1680     1
  2483  1642  1661     1
  2484  1643  1644     2
  2485  1643  1662     1
  2486  1644  1663     1
  2487  1645  1646     2
  2488  1645  1664     1
  2489  1646  1665     1
  2490  1647  1648     2
  2491  1647  1666     1
  2492  1648  1667     1
  2493  1649  1650     2
  2494  1649  1668     1
  2495  1650  1669     1
  2496  1651  1652     2
  2497  1651  1670     1
  2498  1652  1671     1
  2499  1653  1654     2
  2500  1653  1672     1
  2501  1654  1673     1
  2502  1655  1656     2
  2503  1655  1674     1
  2504  1656  1675     1
  2505  1657  1658     2
  2506  1657  1676     1
  2507  1658  1677     1
  2508  1659  1660     2
  2509  1659  1678     1
  2510  1660  1679     1
  2511  1661  1662     1
  2512  1661  1701     1
  2513  1662  1702     1
  2514  1663  1664     1
  2515  1663  1703     1
  2516  1664  1704     1
  2517  1665  1666     1
  2518  1665  1705     1
  2519  1666  1706     1
  2520  1667  1668     1
  2521  1667  1707     1
  2522  1668  1708     1
  2523  1669  1670     1
  2524  1669  1709     1
  2525  1670  1710     1
  2526  1671  1672     1
  2527  1671  1711     1
  2528  1672  1712     1
  2529  1673  1674     1
  2530  1673  1713     1
  2531  1674  1714     1
  2532  1675  1676     1
  2533  1675  1715     1
  2534  1676  1716     1
  2535  1677  1678     1
  2536  1677  1717     1
  2537  1678  1718     1
  2538  1679  1680     1
  2539  1679  1719     1
  2540  1680  1720     1
